%chk=apoCaM-CA-Ng.loop2.water3.frame849.chk
%nprocshared=20
%mem=10GB
%nosave
#b3lyp/svp scf=(tight,noincore,xqc) Test 
#IOP(5/87=12) Density=Current Pop=(MK,readradii) iop(6/33=2) iop(6/42=6)

apoCaM-CA-Ng.loop2.water3.frame849 

   -2  1 
C         63.04420       50.94847       90.80376
C         62.38032       50.08421       89.77450
O         62.80828       48.95625       89.57487
H         63.43253       51.87021       90.32302
H         62.30659       51.22685       91.58596
H         63.88816       50.41046       91.28601
N         61.30183       50.55565       89.08982
C         60.57409       49.77924       88.09636
C         59.17751       49.53010       88.63773
O         58.19184       49.96734       88.05892
C         60.61035       50.53138       86.74715
C         59.99425       49.76895       85.60036
O         59.46811       48.54033       85.77578
O         59.98618       50.26733       84.48639
H         60.96173       51.50731       89.30136
H         61.05441       48.78822       87.93771
H         61.67372       50.72169       86.48197
H         60.09890       51.51291       86.85346
N         59.04340       48.81504       89.79008
C         57.76287       48.53525       90.42720
C         57.11589       49.83544       90.88605
O         57.76719       50.55833       91.62809
C         57.98216       47.62132       91.64184
H         59.90259       48.44844       90.22978
H         57.13318       47.98251       89.70445
H         58.44764       46.66704       91.31417
H         58.65403       48.10496       92.38355
H         57.01877       47.38727       92.13987
N         55.87192       50.25393       90.50004
C         54.93771       49.49409       89.66311
C         53.78036       50.35888       89.15738
O         53.68854       51.52597       89.50628
C         54.38651       48.25915       90.43313
C         53.65263       48.58377       91.71163
O         53.12734       47.58046       92.43937
O         53.53299       49.73259       92.10549
H         55.58825       51.18724       90.83579
H         55.47096       49.16603       88.74558
H         55.20583       47.56972       90.69865
H         53.69865       47.68845       89.77625
N         52.87853       49.83812       88.27501
C         51.76896       50.58503       87.69954
C         50.47221       49.81218       87.84026
O         49.98236       49.34107       86.82386
H         53.01168       48.87024       87.94520
H         51.98627       50.69081       86.61410
H         51.67038       51.60971       88.10999
N         49.84091       49.58710       89.02962
C         50.23933       50.15682       90.30932
C         49.75565       51.59875       90.37344
O         48.55439       51.82644       90.31915
C         49.63704       49.29833       91.44311
C         50.10578       49.63232       92.83418
N         49.67926       48.87153       93.86768
O         50.88088       50.55464       93.03720
H         49.00397       48.98143       89.01044
H         51.34020       50.07992       90.40847
H         49.94076       48.24416       91.25959
H         48.52659       49.34873       91.40953
H         49.03241       48.08538       93.70896
H         50.00465       49.04892       94.82491
N         50.64302       52.62876       90.42010
C         50.25193       54.02509       90.32753
C         49.67660       54.61408       91.59589
O         49.36773       55.79713       91.56485
H         51.64677       52.41753       90.41104
H         49.55076       54.15980       89.47464
H         51.16120       54.62472       90.10360
N         49.54519       53.90210       92.75423
C         49.11731       54.51667       94.00984
C         50.22808       54.36865       95.06943
O         51.50412       54.25978       94.51463
C         47.82074       53.85145       94.52761
C         46.64175       54.08014       93.58432
O         48.01466       52.46639       94.68089
H         49.80159       52.90609       92.77296
H         48.93292       55.60453       93.86883
H         47.53031       54.31447       95.50070
H         48.12244       52.28606       95.65036
H         46.44528       55.16782       93.47662
H         46.84302       53.64243       92.58409
H         45.73262       53.59893       94.00519
N         50.19283       55.41619       96.09020
C         51.13241       55.18927       97.20940
C         50.60450       54.10154       98.15331
O         49.49517       54.23815       98.64903
C         51.35840       56.55496       97.92271
C         52.26913       56.47077       99.17493
C         51.91300       57.59374       96.92166
C         53.69870       55.99283       98.90885
H         49.22316       55.56337       96.45359
H         52.12267       54.87593       96.81368
H         50.37161       56.92879       98.27586
H         51.80090       55.79372       99.91950
H         52.32524       57.47910       99.64077
H         51.21121       57.74639       96.07498
H         52.05552       58.57672       97.41752
H         52.88319       57.26394       96.49337
H         53.69503       54.97299       98.48382
H         54.23653       56.67481       98.22029
H         54.25894       55.96986       99.86609
N         51.36989       53.00715       98.46247
C         50.93877       51.92960       99.35720
C         51.72718       51.90758      100.66901
O         51.44683       51.03075      101.47876
C         51.06808       50.54184       98.68015
C         50.09038       50.28778       97.56673
O         49.20061       49.46803       97.73269
O         50.18671       50.88336       96.36780
H         52.32076       52.94399       98.07326
H         49.87506       52.06580       99.65442
H         50.83295       49.77717       99.45420
H         52.10669       50.35224       98.33709
N         52.65770       52.84989      100.99885
C         53.31563       52.88806      102.30328
C         54.81554       53.13383      102.16640
O         55.18073       54.19095      101.66625
C         52.67424       54.02006      103.13231
C         53.39392       54.26652      104.43898
C         53.99844       55.51453      104.66763
C         53.48984       53.26721      105.42344
C         54.69269       55.75800      105.85353
C         54.18933       53.51502      106.61017
C         54.79082       54.75885      106.82379
H         52.83613       53.63016      100.35256
H         53.13493       51.94678      102.86116
H         51.60755       53.77567      103.33075
H         52.69182       54.94956      102.52126
H         53.93975       56.29885      103.92309
H         53.03279       52.29766      105.27174
H         55.15780       56.72154      106.01593
H         54.26874       52.74263      107.36409
H         55.33375       54.94998      107.74009
N         55.75765       52.25919      102.64514
C         57.18043       52.56498      102.72214
C         57.89389       52.54539      101.38001
O         59.09996       52.74945      101.37470
C         57.71424       51.50850      103.69536
C         56.84666       50.31597      103.36950
C         55.46977       50.96491      103.23656
H         57.35426       53.56239      103.18531
H         58.81266       51.34290      103.66830
H         57.44098       51.82178      104.73024
H         57.16490       49.94229      102.36950
H         56.89242       49.47669      104.09570
H         54.83263       50.32253      102.59136
H         54.99320       51.12332      104.22726
N         57.23231       52.35512      100.20192
C         57.90459       52.40607       98.90518
C         58.56874       53.75176       98.61539
O         59.30267       53.82454       97.63897
C         56.91375       52.07031       97.76817
C         55.78549       53.11344       97.63677
C         54.82587       52.71591       96.56374
O         54.16469       51.54876       96.66491
O         54.62905       53.44672       95.60607
H         56.22675       52.14876      100.22485
H         58.69863       51.62656       98.91858
H         56.47428       51.06858       97.97064
H         57.46357       52.01110       96.80267
H         56.21201       54.11338       97.40287
H         55.21387       53.19333       98.58239
N         58.34467       54.85896       99.38414
C         58.96414       56.14407       99.13127
H         59.65259       56.12245       98.26075
H         58.17482       56.89976       98.93648
H         59.54404       56.45214      100.02633
H         57.69398       54.81752      100.17992
Ca        51.71362       52.28173       95.52715
O         55.64597       50.43697       94.28341
H         55.81339       50.02083       95.16628
H         56.26630       51.20805       94.25132
O         52.78665       49.08587       95.81748
H         52.82506       48.50340       95.01870
H         53.07932       48.50529       96.56418
O         53.54137       53.35458       92.32839
H         53.22514       52.41705       92.35144
H         54.49317       53.30051       92.59513

Ca 1.0



