%chk=apoCaM-CA-Ng.loop2.water3.frame629.chk
%nprocshared=20
%mem=10GB
%nosave
#b3lyp/svp scf=(tight,noincore,xqc) Test 
#IOP(5/87=12) Density=Current Pop=(MK,readradii) iop(6/33=2) iop(6/42=6)

apoCaM-CA-Ng.loop2.water3.frame629 

   -2  1 
C        -21.29620       32.89935        0.14476
C        -21.78418       33.71023        1.30649
O        -22.97219       33.68561        1.59551
H        -20.52932       32.17563        0.49237
H        -22.13286       32.33644       -0.32178
H        -20.84821       33.57232       -0.61558
N        -20.90612       34.46135        2.02835
C        -21.31073       35.26616        3.17438
C        -21.91361       34.37426        4.24202
O        -21.23518       33.48532        4.73701
C        -20.10241       36.04689        3.73320
C        -20.47179       36.90328        4.91374
O        -21.30988       37.78361        4.80042
O        -19.87155       36.70436        6.10297
H        -19.91400       34.45797        1.74331
H        -22.06436       36.00991        2.83074
H        -19.69371       36.70500        2.93572
H        -19.30490       35.33305        4.03532
N        -23.19952       34.56815        4.64498
C        -23.84459       33.73422        5.65005
C        -24.05042       32.31620        5.13597
O        -24.10399       32.13267        3.92769
C        -25.22667       34.32289        5.98313
H        -23.72999       35.35092        4.23182
H        -23.21233       33.74681        6.56278
H        -25.86009       34.34796        5.06939
H        -25.77060       33.73215        6.74452
H        -25.11496       35.35730        6.36812
N        -24.29063       31.26162        5.96755
C        -24.15405       31.31824        7.42285
C        -22.69837       31.42343        7.85333
O        -21.79830       31.23732        7.04792
C        -24.89072       30.15188        8.13753
C        -24.65672       28.73728        7.66119
O        -23.91154       28.44934        6.58042
O        -25.26437       27.83051        8.20726
H        -24.57415       30.38213        5.51691
H        -24.65414       32.22914        7.79651
H        -25.98037       30.32216        8.00734
H        -24.67648       30.20457        9.22726
N        -22.41042       31.79168        9.13221
C        -21.06967       31.85869        9.68611
C        -20.62796       33.28960        9.93681
O        -21.29902       34.20425        9.48096
H        -23.18749       32.04131        9.76301
H        -20.31581       31.38427        9.02128
H        -21.10661       31.28690       10.63713
N        -19.50507       33.59385       10.65784
C        -18.68688       32.60822       11.35121
C        -17.25199       32.68683       10.86675
O        -16.34472       32.85667       11.67107
C        -18.79600       32.81380       12.88520
C        -20.22188       32.78824       13.39343
N        -21.08230       33.80007       13.11919
O        -20.59388       31.85756       14.09179
H        -19.25279       34.58834       10.77668
H        -19.02672       31.57819       11.13728
H        -18.33879       33.77883       13.19508
H        -18.22516       31.99172       13.37229
H        -20.78639       34.62300       12.57590
H        -22.04807       33.78032       13.47795
N        -16.97318       32.55868        9.53903
C        -15.61629       32.61754        9.02292
C        -14.95165       31.25918        8.96592
O        -13.77589       31.22393        8.62466
H        -17.74606       32.43972        8.86740
H        -15.00656       33.30871        9.64595
H        -15.62967       33.05005        7.99980
N        -15.61741       30.09983        9.25298
C        -14.98765       28.78082        9.19904
C        -15.59509       27.93069        8.09848
O        -16.59362       28.32710        7.50791
C        -15.13078       28.06685       10.56504
C        -14.40362       28.82656       11.67769
O        -16.49428       27.94223       10.88776
H        -16.61829       30.13920        9.50268
H        -13.90736       28.87814        8.95255
H        -14.67089       27.05519       10.48341
H        -16.57097       27.21774       11.56196
H        -13.32206       28.90599       11.43834
H        -14.82545       29.84569       11.80637
H        -14.51041       28.27644       12.63692
N        -15.02509       26.73886        7.75757
C        -15.57862       25.86459        6.73257
C        -16.57575       24.93349        7.38062
O        -16.20195       24.14376        8.23821
C        -14.48115       25.04211        5.99406
C        -15.13848       24.08320        4.95559
C        -13.47595       25.98790        5.31246
C        -14.16075       23.13326        4.26831
H        -14.17407       26.43290        8.25640
H        -16.08376       26.48448        5.95599
H        -13.93625       24.42888        6.74637
H        -15.68474       24.67057        4.18678
H        -15.87406       23.42751        5.46718
H        -12.65187       25.41812        4.83876
H        -13.98283       26.60160        4.53666
H        -13.00899       26.66702        6.05524
H        -14.72825       22.45495        3.59532
H        -13.42296       23.68195        3.65151
H        -13.63378       22.51625        5.02683
N        -17.86887       24.96158        6.97793
C        -18.90364       24.06982        7.46127
C        -19.53649       23.27160        6.31853
O        -20.46431       22.52607        6.59791
C        -19.91621       24.90374        8.25371
C        -20.53516       25.97700        7.42531
O        -20.27956       27.26759        7.69777
O        -21.28947       25.69007        6.50938
H        -18.14879       25.66876        6.29133
H        -18.48740       23.32888        8.17815
H        -19.37146       25.38359        9.09651
H        -20.71534       24.26487        8.68723
N        -19.04927       23.30670        5.03281
C        -19.53391       22.41046        3.98777
C        -19.69726       23.13266        2.64003
O        -18.98677       22.78773        1.70550
C        -18.53676       21.22767        3.87869
C        -19.07932       20.11317        3.01149
C        -18.45681       19.76939        1.79913
C        -20.22190       19.40092        3.42055
C        -18.97902       18.74110        1.00639
C        -20.73506       18.37046        2.62957
C        -20.11643       18.04252        1.42150
H        -18.21452       23.86772        4.81543
H        -20.51123       21.97402        4.27833
H        -18.34612       20.79763        4.88628
H        -17.56309       21.60895        3.49643
H        -17.57650       20.30198        1.46182
H        -20.71297       19.63886        4.35598
H        -18.50259       18.48529        0.06905
H        -21.61305       17.82694        2.95449
H        -20.51826       17.24608        0.80867
N        -20.62607       24.11680        2.42107
C        -20.89152       24.66693        1.09177
C        -19.75860       25.46789        0.47014
O        -19.88992       25.86630       -0.67992
C        -22.11669       25.56054        1.30464
C        -22.81566       24.85752        2.45563
C        -21.63313       24.53884        3.36513
H        -21.15403       23.80545        0.43611
H        -21.78266       26.55021        1.69327
H        -22.72896       25.72829        0.39252
H        -23.62304       25.44523        2.93856
H        -23.24132       23.90085        2.07516
H        -21.27854       25.47301        3.85485
H        -21.90318       23.78074        4.12755
N        -18.63978       25.78572        1.17793
C        -17.53807       26.56276        0.62634
C        -16.82905       25.73108       -0.41850
O        -16.74255       26.15840       -1.56087
C        -16.53770       26.99357        1.72936
C        -17.08740       28.07539        2.68463
C        -18.28507       27.64093        3.47153
O        -19.45509       28.29438        3.35093
O        -18.20582       26.68709        4.22101
H        -18.57213       25.46989        2.15110
H        -17.92565       27.49844        0.16135
H        -15.65118       27.44955        1.23570
H        -16.18514       26.11003        2.30289
H        -17.35179       28.97953        2.09578
H        -16.28691       28.35420        3.40394
N        -16.30738       24.51603       -0.08638
C        -15.61995       23.65507       -1.02572
H        -14.59308       23.45614       -0.65456
H        -16.16662       22.69224       -1.10590
H        -15.54718       24.10431       -2.03823
H        -16.40915       24.17237        0.88041
Ca       -21.69990       28.55810        6.61475
O        -21.20770       30.55167        4.01711
H        -21.55789       31.07485        3.25341
H        -20.39954       31.04428        4.30571
O        -18.88896       30.14387        6.31381
H        -18.49686       30.25035        7.21645
H        -18.29495       29.49933        5.85359
O        -22.97360       28.20504        3.60535
H        -23.73577       27.69506        3.97743
H        -23.24501       28.41336        2.67638

Ca 1.0



