%chk=apoCaM-CA-Ng.loop1.water4.frame425.chk
%nprocshared=20
%mem=10GB
%nosave
#b3lyp/svp scf=(tight,noincore,xqc) Test 
#IOP(5/87=12) Density=Current Pop=(MK,readradii) iop(6/33=2) iop(6/42=6)

apoCaM-CA-Ng.loop1.water4.frame425 

   0  1 
C         96.13702       77.36302       79.08284
C         96.53431       78.66396       78.44580
O         96.64373       78.72563       77.22969
H         95.14254       77.04997       78.70381
H         96.88853       76.58376       78.84016
H         96.07575       77.45487       80.18900
N         96.76130       79.75842       79.21956
C         97.13531       81.06632       78.68955
C         98.61291       81.13154       78.29483
O         99.10122       82.23576       78.12286
C         96.85067       82.16236       79.75276
C         95.39480       82.24614       80.13969
O         94.78845       81.22204       80.76936
O         94.75927       83.26152       79.90642
H         96.62393       79.66523       80.23733
H         96.49813       81.32883       77.82187
H         97.13102       83.14871       79.32482
H         97.46588       81.99675       80.66346
N         99.41275       80.03295       78.17723
C        100.86654       80.12286       78.08892
C        101.42888       79.57497       76.78893
O        101.01452       78.49099       76.40055
C        101.45876       79.34296       79.27628
C        101.06451       80.00865       80.59879
C        101.66665       79.28205       81.79799
C        101.25594       79.98843       83.09504
N        101.81298       79.30815       84.26103
H         99.01529       79.08798       78.25140
H        101.18337       81.16342       78.19879
H        102.56238       79.32682       79.21016
H        101.10918       78.28693       79.25065
H         99.95751       80.01790       80.69968
H        101.43161       81.05798       80.59335
H        102.77590       79.27816       81.71162
H        101.30231       78.23155       81.81294
H        100.14557       80.00115       83.17351
H        101.61776       81.04137       83.07549
H        101.46571       78.32239       84.29969
H        102.85772       79.31564       84.21464
H        101.50653       79.81066       85.12502
N        102.45593       80.16989       76.09129
C        103.15906       81.42419       76.40988
C        103.66479       81.42580       77.84312
O        103.23333       82.25293       78.63098
C        102.29636       82.66114       76.05638
C        101.92442       82.68581       74.60635
O        101.17361       83.55180       74.18785
O        102.35288       81.71071       73.78286
H        102.81789       79.65490       75.27333
H        104.05391       81.51255       75.75324
H        102.85551       83.59512       76.27906
H        101.35542       82.65952       76.63323
N        104.56937       80.52842       78.30496
C        105.24662       79.55106       77.47173
C        106.20604       78.69892       78.28356
O        106.17855       78.75063       79.50467
H        104.80273       80.59207       79.30399
H        105.82942       80.12127       76.71636
H        104.52313       78.88430       76.95996
N        107.15095       77.91561       77.69896
C        107.36534       77.79618       76.26422
C        108.51805       78.68358       75.84144
O        109.47573       78.82836       76.59027
C        107.58688       76.32825       75.83368
C        108.78931       75.66171       76.46034
O        108.82759       75.40779       77.78249
O        109.72031       75.30068       75.75890
H        107.82606       77.46930       78.33424
H        106.46670       78.13568       75.70577
H        107.71238       76.32053       74.72779
H        106.68543       75.72462       76.07307
N        108.49023       79.30963       74.63102
C        109.55760       80.17813       74.16746
C        109.62300       81.44572       74.98383
O        110.63514       81.70286       75.61841
H        107.69423       79.14083       73.99602
H        109.36588       80.46800       73.11139
H        110.52132       79.62515       74.20051
N        108.56187       82.29796       74.98583
C        108.51366       83.55548       75.72378
C        107.38354       83.47835       76.72628
O        106.28637       83.07561       76.36372
C        108.33335       84.74151       74.75107
C        109.56992       84.89163       73.85344
O        108.17027       85.92411       75.49089
H        107.73325       82.04339       74.42419
H        109.45813       83.73924       76.28259
H        107.42567       84.56282       74.12783
H        107.79390       86.60257       74.87063
H        109.44078       85.75369       73.16574
H        110.47261       85.07736       74.47688
H        109.73604       83.97815       73.24616
N        107.58820       83.87087       78.01642
C        106.59355       83.72433       79.06818
C        105.95406       85.08143       79.32100
O        106.10005       85.65004       80.39420
C        107.23521       83.07694       80.34030
C        108.07797       81.82324       79.97511
C        106.13827       82.72003       81.37091
C        108.82134       81.21517       81.16787
H        108.49081       84.30134       78.26955
H        105.78381       83.04414       78.73189
H        107.93043       83.81955       80.79011
H        108.86222       82.11126       79.24342
H        107.43925       81.05077       79.50182
H        105.46212       81.93975       80.96959
H        106.57715       82.34646       82.31656
H        105.51825       83.59732       81.63794
H        109.46713       80.38301       80.81663
H        109.46631       81.98157       81.64922
H        108.12001       80.79874       81.91787
N        105.16915       85.62905       78.35006
C        104.41037       86.86739       78.51383
C        102.92287       86.57829       78.68938
O        102.16613       87.51273       78.91238
C        104.63332       87.81339       77.30080
C        104.12698       87.24096       75.95856
O        105.98448       88.18115       77.19746
H        105.03341       85.08750       77.48441
H        104.73711       87.39274       79.43803
H        104.05331       88.74353       77.48759
H        106.49385       87.37496       76.92566
H        104.67898       86.32578       75.66187
H        103.04995       86.99356       76.01628
H        104.25427       87.99334       75.15329
N        102.43494       85.30673       78.58618
C        101.03451       84.91260       78.68764
C        100.23138       85.52172       77.53114
O        100.78705       86.31238       76.78265
C        100.49022       85.17608       80.11978
C        101.42291       84.53561       81.17205
O         99.20858       84.61779       80.24432
H        103.08874       84.54603       78.40373
H        101.00098       83.81467       78.54741
H        100.43420       86.27059       80.30529
H         98.87732       84.83390       81.15520
H        101.51397       83.44226       81.00107
H        102.43852       84.98420       81.13436
H        101.02753       84.69932       82.19665
N         98.93265       85.17916       77.28847
C         98.15349       85.75366       76.19159
C         97.58405       84.71190       75.21577
O         96.78821       85.09430       74.36957
C         97.09082       86.69968       76.78129
C         95.98961       86.03390       77.61531
C         95.09292       87.12812       78.22070
C         93.89377       86.58458       79.00795
N         92.93398       85.90037       78.13955
H         98.45931       84.52483       77.91970
H         98.78678       86.42187       75.56867
H         96.60904       87.25906       75.94911
H         97.62809       87.44144       77.41506
H         96.42212       85.43712       78.44557
H         95.41192       85.36138       76.94961
H         94.71414       87.80163       77.42124
H         95.71471       87.73660       78.91535
H         93.38211       87.44999       79.48504
H         94.23752       85.90441       79.81693
H         92.09515       85.63456       78.70323
H         92.62961       86.53971       77.36900
H         93.34816       85.03075       77.73697
N         97.99825       83.40782       75.20424
C         97.50646       82.41435       74.23893
C         96.03958       82.10741       74.47561
O         95.60865       82.05664       75.61844
C         98.35887       81.12080       74.31485
C         97.95553       79.96789       73.35980
C         97.93469       80.27370       71.87318
O         99.03375       80.65768       71.19095
O         96.90009       80.10470       71.24882
H         98.73090       83.12000       75.86543
H         97.64063       82.81140       73.21099
H         98.31015       80.71951       75.35113
H         99.41320       81.39091       74.11746
H         96.94644       79.60867       73.65765
H         98.66258       79.12655       73.52399
N         95.22157       81.83131       73.42397
C         93.83353       81.46446       73.59630
H         93.27555       82.30081       74.06522
H         93.37916       81.23631       72.60821
H         93.75544       80.55736       74.23422
H         95.60013       81.85527       72.46731
Ca       101.01559       81.08820       72.12456
O        100.93976       82.38167       68.79527
H        100.93660       83.19876       68.23583
H        101.51773       81.74590       68.30322
O        103.11609       83.52379       71.16907
H        102.46531       84.22405       70.91207
H        103.40743       83.77719       72.08084
O        104.11925       80.32389       71.38344
H        104.60642       81.17516       71.24853
H        104.27483       80.09782       72.33485
O         99.29001       83.61932       71.21164
H         99.81205       83.37625       72.01480
H         98.74882       84.39392       71.50366

Ca 1.0



