%chk=apoCaM-CA-Ng.loop3.water3.frame610.chk
%nprocshared=20
%mem=10GB
%nosave
#b3lyp/svp scf=(tight,noincore,xqc) Test 
#IOP(5/87=12) Density=Current Pop=(MK,readradii) iop(6/33=2) iop(6/42=6)

apoCaM-CA-Ng.loop3.water3.frame610 

   0  1 
C         89.89703       40.41236       80.08687
C         91.02400       41.23540       80.63371
O         91.15586       42.39550       80.26952
H         89.27954       41.00610       79.38021
H         90.30616       39.52815       79.55516
H         89.25156       40.06773       80.92260
N         91.87380       40.69129       81.54576
C         92.96984       41.43782       82.14825
C         94.00888       41.77033       81.08131
O         94.53742       40.85379       80.46629
C         93.59132       40.60168       83.28755
C         94.53807       41.36870       84.16414
O         95.14210       40.78645       85.05035
O         94.73362       42.68733       83.99260
H         91.70410       39.71758       81.84496
H         92.54234       42.35885       82.60544
H         94.11131       39.72018       82.85186
H         92.78635       40.23140       83.94577
N         94.32888       43.06318       80.79030
C         95.26317       43.43796       79.72854
C         96.64953       42.86510       79.96165
O         97.17857       42.24111       79.05183
C         95.32017       44.97605       79.56926
C         96.21406       45.40644       78.38713
C         96.10778       46.91276       78.11240
C         97.00102       47.32455       76.93087
N         96.84496       48.74643       76.62320
H         93.86163       43.81184       81.32405
H         94.87409       43.04210       78.76231
H         95.67989       45.45732       80.50487
H         94.28399       45.32784       79.36879
H         95.89265       44.86516       77.46999
H         97.27230       45.14113       78.60346
H         96.40719       47.48506       79.01710
H         95.05080       47.15692       77.86700
H         96.72942       46.72997       76.02998
H         98.06544       47.11514       77.17949
H         97.10417       49.32796       77.45267
H         97.47237       48.99579       75.82443
H         95.85589       48.94618       76.34689
N         97.29424       43.02889       81.15135
C         98.66037       42.56116       81.38450
C         98.71950       41.30063       82.23351
O         99.80968       40.77166       82.35973
C         99.53997       43.71938       81.92809
C         98.95566       44.37442       83.15092
O         98.77479       43.67587       84.28030
O         98.53363       45.51791       83.08447
H         96.78654       43.48670       81.92329
H         99.11941       42.24441       80.42211
H         99.60224       44.48851       81.12813
H        100.57179       43.36657       82.14189
N         97.61297       40.69851       82.75959
C         97.65818       39.40725       83.44110
C         98.34700       39.39369       84.79927
O         98.41301       38.31836       85.37860
H         96.68762       41.11400       82.59560
H         98.14920       38.66759       82.77128
H         96.61707       39.05481       83.60740
N         98.85628       40.51563       85.38799
C         99.48045       40.52762       86.71180
C         98.70838       41.42504       87.67054
O         97.81328       42.15237       87.26418
C        100.93797       41.05990       86.63932
C        101.93650       40.11865       86.00733
N        101.84546       39.75478       84.71288
O        102.86728       39.69981       86.67946
H         98.78075       41.40828       84.89496
H         99.48244       39.50886       87.15818
H        101.30499       41.24254       87.67206
H        100.95147       42.04041       86.11292
H        101.08680       40.10959       84.13253
H        102.54509       39.12833       84.28857
N         99.04395       41.40929       88.99184
C         98.51527       42.29893       90.01073
C         97.01068       42.26906       90.14094
O         96.42229       41.20031       90.21626
H         99.76098       40.73601       89.30374
H         98.86069       43.33516       89.80391
H         98.95236       41.99868       90.98720
N         96.33605       43.44807       90.25653
C         94.88912       43.56157       90.42147
C         94.15309       43.21709       89.13579
O         94.78075       42.86317       88.14782
C         94.54098       45.01253       90.86126
C         94.98217       45.29539       92.27853
C         94.40106       44.58233       93.34382
C         95.93886       46.28367       92.55977
C         94.77010       44.85071       94.66339
C         96.30868       46.54985       93.88401
C         95.72288       45.83438       94.93998
O         96.06182       46.08544       96.22068
H         96.89375       44.31641       90.27603
H         94.53933       42.86216       91.21104
H         93.44927       45.19853       90.85745
H         94.98923       45.72861       90.13684
H         93.65055       43.82471       93.15504
H         96.39541       46.84993       91.75812
H         94.30870       44.29681       95.47186
H         97.04602       47.31533       94.08915
H         96.70998       46.76298       96.45944
N         92.79194       43.33311       89.09647
C         91.93544       43.11837       87.93634
C         92.30259       44.05172       86.79132
O         93.38432       43.94301       86.23525
C         91.86379       41.62451       87.50231
C         90.88816       41.48378       86.29578
C         91.39641       40.77121       88.69832
C         90.61514       40.04681       85.85113
H         92.30287       43.62146       89.95644
H         90.90047       43.37630       88.25802
H         92.86946       41.26507       87.19236
H         91.31977       42.02699       85.42671
H         89.90790       41.94977       86.53932
H         90.37902       41.07874       89.02402
H         91.38168       39.69349       88.43932
H         92.09386       40.87938       89.55461
H         90.05129       39.49272       86.62834
H         89.98766       40.06289       84.93399
H         91.55905       39.50906       85.63992
N         91.38606       44.95406       86.34427
C         91.57966       45.78267       85.16457
C         91.36889       47.25231       85.47488
O         92.22803       48.05192       85.12760
C         90.59005       45.32414       84.08578
O         90.78098       46.06871       82.91412
H         90.46998       44.99545       86.81374
H         92.59929       45.64714       84.73799
H         89.54465       45.44827       84.44632
H         90.78182       44.24707       83.87414
H         90.18174       45.66714       82.23281
N         90.22105       47.68850       86.07458
C         89.87701       49.10188       86.19931
C         90.91652       49.91556       86.95749
O         91.67098       49.33660       87.72648
C         88.51695       49.25963       86.88872
H         89.52805       46.98987       86.38192
H         89.81956       49.47297       85.15619
H         87.73277       48.71394       86.32343
H         88.56426       48.84840       87.92111
H         88.22839       50.32631       86.95614
N         91.08595       51.26074       86.75703
C         90.33341       52.07440       85.80055
C         89.88944       53.40103       86.40334
O         90.65082       53.97283       87.17129
C         91.23323       52.37040       84.59968
H         91.87168       51.71562       87.24937
H         89.45943       51.53571       85.40641
H         90.68471       52.97200       83.84315
H         92.14038       52.92958       84.91244
H         91.54464       51.41683       84.12238
N         88.74544       54.04755       86.02031
C         87.76509       53.51333       85.07836
C         86.81997       52.54409       85.76020
O         86.37312       51.60484       85.11589
C         87.00426       54.61580       84.30444
C         86.13537       55.55427       85.15663
C         85.40893       56.53368       84.27661
O         84.06258       56.56076       84.26514
O         86.03298       57.30975       83.56962
H         88.58893       54.99020       86.40581
H         88.29690       52.98359       84.25929
H         86.34669       54.11475       83.55770
H         87.74822       55.22448       83.74343
H         86.75820       56.12743       85.87264
H         85.38966       54.96146       85.72654
N         86.45927       52.71447       87.06345
C         85.55293       51.81102       87.73802
H         84.56795       51.80900       87.22561
H         85.96952       50.78222       87.74295
H         85.40728       52.13754       88.78978
H         86.83427       53.51059       87.60047
Ca        96.61534       43.55450       84.83781
O         95.27909       45.75902       83.48963
H         95.51427       46.72026       83.48872
H         94.49905       45.68939       82.88490
O         98.04454       45.07549       87.20341
H         98.10485       45.32305       88.15983
H         98.96879       45.16896       86.86134
O         95.26949       46.23059       86.65564
H         94.47364       46.75507       86.92339
H         95.94787       46.91089       86.41618

Ca 1.0



