%chk=apoCaM-CA-Ng.loop1.water1.frame910.chk
%nprocshared=20
%mem=10GB
%nosave
#b3lyp/svp scf=(tight,noincore,xqc) Test 
#IOP(5/87=12) Density=Current Pop=(MK,readradii) iop(6/33=2) iop(6/42=6)

apoCaM-CA-Ng.loop1.water1.frame910 

   0  1 
C         97.95006       19.59438        1.25175
C         97.73247       20.86075        2.02799
O         98.21886       21.89999        1.60636
H         97.54649       19.72061        0.22512
H         99.03478       19.36932        1.19425
H         97.43300       18.73258        1.72499
N         97.00047       20.84543        3.17658
C         96.70860       22.03695        3.96517
C         97.32196       21.93602        5.36050
O         97.02701       21.00822        6.09932
C         95.19134       22.34329        4.00724
C         94.27170       21.27458        4.54649
O         94.68910       20.01387        4.76835
O         93.10797       21.56118        4.77815
H         96.63866       19.93876        3.49894
H         97.15244       22.93105        3.47625
H         94.83624       22.61119        2.98864
H         95.07301       23.24735        4.64630
N         98.19059       22.90331        5.77699
C         98.85563       22.94164        7.07939
C         97.88083       22.95515        8.24485
O         96.97428       23.77469        8.28431
C         99.76542       24.18813        7.16882
C        101.07319       23.96260        6.39739
C        101.92652       25.23767        6.34795
C        103.36142       24.96747        5.86214
N        104.16189       24.28899        6.88792
H         98.39263       23.67314        5.12080
H         99.50259       22.04363        7.19045
H        100.06333       24.37005        8.22659
H         99.20987       25.08570        6.81545
H        100.88172       23.62669        5.35491
H        101.60620       23.14837        6.92955
H        101.98459       25.72832        7.34332
H        101.42395       25.94035        5.64706
H        103.84422       25.94513        5.64494
H        103.34998       24.37491        4.92014
H        104.19934       24.87747        7.75290
H        103.77429       23.34968        7.12459
H        105.13723       24.16143        6.53521
N         98.09995       22.09767        9.28554
C         97.29387       22.03941       10.50775
C         97.97648       21.20041       11.59288
O         98.93417       20.49752       11.30035
C         95.86560       21.51363       10.20314
C         95.81222       20.24542        9.39722
O         96.82591       19.70203        8.98489
O         94.61142       19.78584        9.00426
H         98.92907       21.49059        9.21519
H         97.24998       23.07083       10.92096
H         95.33608       22.28353        9.60563
H         95.27685       21.34698       11.12331
N         97.61490       21.26401       12.90727
C         96.54994       22.08368       13.46680
C         97.10820       23.18696       14.32024
O         98.30858       23.40570       14.31963
H         98.17052       20.71395       13.58190
H         95.89890       21.42176       14.07753
H         95.92473       22.58519       12.71140
N         96.26723       23.95880       15.05942
C         96.73325       25.02851       15.93374
C         97.60013       24.45391       17.04535
O         97.14103       23.58258       17.77188
C         95.52480       25.78409       16.52456
C         95.94647       26.92603       17.40782
O         95.56659       26.95363       18.69936
O         96.62719       27.83483       16.95917
H         95.25441       23.76768       14.99754
H         97.31435       25.75940       15.32730
H         94.88856       25.08175       17.10628
H         94.91313       26.19623       15.69191
N         98.86482       24.92291       17.24870
C         99.73136       24.43852       18.31420
C        100.30124       23.05244       18.07120
O        101.02894       22.57588       18.93025
H         99.21084       25.69673       16.66130
H         99.18202       24.47603       19.27936
H        100.60647       25.11910       18.39599
N        100.07189       22.37263       16.91262
C        100.67572       21.09017       16.57374
C         99.58400       20.06508       16.31773
O         98.41309       20.42460       16.29091
C        101.58647       21.32399       15.33276
C        102.52576       20.17606       14.96447
O        100.80499       21.63909       14.20586
H         99.47744       22.79911       16.20265
H        101.30072       20.73346       17.42124
H        102.26735       22.17063       15.59025
H        100.83623       22.62201       14.08147
H        103.20237       20.50719       14.14850
H        103.14590       19.88659       15.83930
H        101.97702       19.30397       14.57159
N         99.89366       18.75637       16.11910
C         98.88121       17.75281       15.82659
C         97.97529       17.61602       17.03579
O         96.76306       17.65094       16.88139
C         99.50872       16.38726       15.39122
C        100.60031       16.53490       14.28687
C         98.40615       15.42748       14.89677
C        100.17989       17.34277       13.05253
H        100.87488       18.46671       16.19782
H         98.28174       18.09752       14.95400
H        100.00617       15.90864       16.26387
H        100.93521       15.52524       13.96311
H        101.49851       17.02155       14.71302
H         97.66510       15.22553       15.69679
H         97.86629       15.85310       14.02402
H         98.84717       14.45429       14.59066
H         99.32178       16.87438       12.53178
H         99.91732       18.38481       13.33154
H        101.03317       17.39752       12.34382
N         98.51855       17.52173       18.28497
C         97.72883       17.40330       19.50587
C         98.08491       16.09553       20.18588
O         99.04400       15.44990       19.78355
C         98.01111       18.60951       20.45168
C         97.66234       19.95305       19.80305
O         97.26442       18.48454       21.63527
H         99.54630       17.54013       18.38060
H         96.64480       17.37539       19.26215
H         99.10105       18.60607       20.69511
H         97.74205       18.99737       22.33956
H         96.58381       19.98958       19.54059
H         97.88111       20.78052       20.51291
H         98.27028       20.12024       18.89361
N         97.34064       15.63990       21.23125
C         97.67883       14.42980       21.96932
C         96.61229       13.35411       21.86934
O         96.88798       12.26471       22.35570
C         97.97606       14.78109       23.45034
C         96.77750       15.39739       24.18441
O         99.04952       15.68359       23.51705
H         96.51103       16.17704       21.51690
H         98.60212       13.97375       21.54955
H         98.23909       13.84647       24.00109
H         99.88277       15.14461       23.48870
H         97.04581       15.59391       25.24284
H         96.47289       16.36336       23.73139
H         95.91643       14.70300       24.17365
N         95.39669       13.54657       21.26795
C         94.37268       12.49687       21.23139
C         93.16436       12.87679       20.38970
O         92.92284       14.05291       20.14846
C         93.92195       12.12161       22.66777
C         93.28778       13.31274       23.41329
C         93.27539       13.06333       24.92936
C         92.69317       14.23884       25.73020
N         91.25210       14.38392       25.52555
H         95.19591       14.45467       20.82599
H         94.83794       11.61231       20.74076
H         94.80505       11.77763       23.23586
H         93.21256       11.26586       22.66170
H         92.27109       13.49114       23.00551
H         93.88809       14.22995       23.24389
H         94.33323       12.93937       25.25385
H         92.72707       12.12948       25.17531
H         93.21745       15.18442       25.46296
H         92.87713       14.04489       26.81007
H         91.03708       14.62416       24.53269
H         90.76622       13.49660       25.79204
H         90.89930       15.15450       26.13765
N         92.37779       11.89099       19.87191
C         91.21654       12.13457       19.02153
C         91.55885       13.05676       17.85137
O         90.88461       14.06942       17.72809
C         90.59581       10.79558       18.54556
C         89.29619       10.99247       17.74890
C         88.71614        9.66851       17.33658
O         88.56405        9.40517       16.15425
O         88.35180        8.76824       18.27008
H         92.63987       10.91201       20.07214
H         90.44217       12.64201       19.64162
H         90.36600       10.17988       19.44343
H         91.31325       10.22748       17.91911
H         89.50122       11.59994       16.84057
H         88.54930       11.52898       18.37233
N         92.57248       12.84714       16.95883
C         93.52246       11.75358       16.97375
H         94.54583       12.16919       17.09046
H         93.36398       11.03323       17.79051
H         93.46696       11.20607       16.01095
H         92.70592       13.54866       16.21369
Ca        94.60198       19.20643        6.85027
O         97.90995       17.85340        5.72618
H         98.81068       18.02085        6.10204
H         98.07493       17.29162        4.92754

Ca 1.0



