%chk=apoCaM-CA-Ng.loop4.water5.frame675.chk
%nprocshared=20
%mem=10GB
%nosave
#b3lyp/svp scf=(tight,noincore,xqc) Test 
#IOP(5/87=12) Density=Current Pop=(MK,readradii) iop(6/33=2) iop(6/42=6)

apoCaM-CA-Ng.loop4.water5.frame675 

   -3  1 
C        -22.71211       47.79541      100.96302
C        -23.07685       48.07305      102.39437
O        -23.35468       49.21298      102.73709
H        -21.68628       47.37440      100.90950
H        -23.42665       47.06167      100.53355
H        -22.75598       48.71611      100.34752
N        -23.11794       47.04285      103.28430
C        -23.50429       47.15658      104.68741
C        -24.91538       47.68267      104.83802
O        -25.14431       48.66855      105.52798
C        -22.50190       47.96594      105.52335
C        -21.15493       47.32153      105.57443
O        -20.08346       48.06342      105.28686
O        -21.01685       46.17571      105.97168
H        -22.89226       46.09765      102.93720
H        -23.52001       46.13148      105.12030
H        -22.86862       48.00759      106.57151
H        -22.41697       49.01042      105.14958
N        -25.93297       47.01544      104.23925
C        -27.33433       47.35844      104.45759
C        -27.69707       47.09206      105.92020
O        -27.12671       46.17080      106.48998
C        -28.26721       46.53729      103.50966
C        -28.20462       45.00689      103.79831
C        -27.93826       46.86621      102.03840
C        -29.14427       44.17034      102.93409
H        -25.68465       46.22022      103.63472
H        -27.46744       48.43177      104.21063
H        -29.31102       46.87321      103.69247
H        -28.50581       44.82572      104.85088
H        -27.17707       44.61174      103.66369
H        -27.99829       47.96220      101.86896
H        -26.92128       46.52185      101.75709
H        -28.66722       46.39345      101.35086
H        -29.08259       43.10875      103.25550
H        -30.19101       44.51957      103.05259
H        -28.84975       44.21338      101.86634
N        -28.67058       47.76087      106.60354
C        -29.40547       48.92548      106.12550
C        -28.46875       50.11776      106.08174
O        -28.33589       50.74597      105.04075
C        -30.59076       49.20925      107.07492
C        -31.44466       50.34918      106.59538
O        -31.99652       50.28960      105.50791
O        -31.62130       51.43372      107.37333
H        -28.88709       47.41637      107.55329
H        -29.83857       48.71143      105.12395
H        -30.21953       49.42663      108.10032
H        -31.23182       48.30205      107.12969
N        -27.73770       50.44213      107.18596
C        -26.72764       51.48080      107.19034
C        -27.28590       52.88215      107.20783
O        -28.49008       53.08364      107.28305
H        -27.82485       49.85992      108.03287
H        -26.05132       51.33807      106.32009
H        -26.11542       51.37969      108.11334
N        -26.40006       53.91427      107.18779
C        -26.74750       55.32449      107.33478
C        -27.67313       55.90615      106.26694
O        -28.04189       57.06043      106.43659
C        -25.44779       56.17978      107.42385
C        -24.49353       56.05506      106.25358
O        -23.36552       56.78958      106.24419
O        -24.69913       55.27438      105.33787
H        -25.40034       53.66245      107.13961
H        -27.28225       55.43773      108.30389
H        -24.88270       55.87758      108.33129
H        -25.72084       57.25070      107.54440
N        -28.10317       55.23004      105.15808
C        -28.93210       55.88798      104.14841
C        -28.17859       56.98318      103.39837
O        -28.79465       57.72056      102.64350
H        -27.83928       54.24729      105.00683
H        -29.82634       56.31693      104.65218
H        -29.28603       55.14796      103.39944
N        -26.82949       57.10989      103.53531
C        -25.96834       58.09109      102.89781
C        -25.98290       57.97735      101.38664
O        -25.96211       58.99142      100.70253
C        -26.20033       59.51950      103.43909
C        -26.01837       59.56171      104.96862
C        -26.12847       60.94078      105.56665
N        -26.00465       61.09703      106.90540
O        -26.32415       61.91813      104.85894
H        -26.33531       56.43492      104.11980
H        -24.92551       57.81966      103.18314
H        -27.21717       59.87782      103.16927
H        -25.44836       60.19695      102.97705
H        -25.01744       59.15583      105.23193
H        -26.79256       58.92785      105.43876
H        -25.84192       60.28199      107.51589
H        -26.07271       62.03140      107.33489
N        -25.93602       56.74464      100.80333
C        -25.68469       56.53670       99.37943
C        -24.45353       55.66383       99.15694
O        -24.05580       55.53510       98.00629
C        -26.90632       55.91308       98.65112
C        -27.26868       54.51612       99.18363
C        -28.12332       56.84169       98.71812
H        -26.05084       55.91963      101.40821
H        -25.46820       57.51434       98.89380
H        -26.64086       55.80386       97.57485
H        -27.57994       54.56012      100.24765
H        -28.10420       54.08996       98.58896
H        -26.40550       53.82349       99.08979
H        -28.96103       56.41105       98.12876
H        -28.45841       56.98263       99.76689
H        -27.87100       57.83211       98.28225
N        -23.82275       54.99960      100.17647
C        -22.68490       54.11657       99.96668
C        -21.50185       54.61444      100.78442
O        -21.66686       55.56159      101.54555
C        -23.10727       52.68490      100.36052
C        -22.18454       51.63288       99.81230
N        -22.09872       51.43768       98.47407
O        -21.53311       50.93563      100.57413
H        -24.15762       55.07730      101.14528
H        -22.40043       54.13200       98.89354
H        -24.11187       52.46094       99.93771
H        -23.19067       52.61989      101.46865
H        -22.66494       52.00294       97.82284
H        -21.48637       50.70651       98.08503
N        -20.25852       54.07284      100.64286
C        -19.10659       54.63463      101.35021
C        -17.78474       54.21569      100.70912
O        -17.78387       53.38336       99.81415
C        -19.16143       54.24763      102.85521
C        -18.28818       55.13514      103.70778
C        -17.15300       54.63392      104.36409
C        -18.61517       56.49467      103.84788
C        -16.34746       55.48364      105.12999
C        -17.81692       57.33971      104.62120
C        -16.67774       56.84122      105.25958
O        -15.91056       57.67453      105.99074
H        -20.13234       53.32911       99.94193
H        -19.16925       55.73807      101.22202
H        -18.88535       53.17343      102.95160
H        -20.19095       54.35058      103.25952
H        -16.88133       53.59531      104.26961
H        -19.49320       56.89902      103.35944
H        -15.46650       55.08733      105.61906
H        -18.08348       58.38444      104.71985
H        -15.10752       57.37502      106.43981
N        -16.61576       54.81010      101.08161
C        -15.32253       54.50996      100.48315
C        -14.33555       54.13201      101.58599
O        -13.54447       54.97712      101.98285
C        -14.86213       55.74515       99.67971
C        -13.56324       55.47009       98.90165
C        -13.14796       56.66785       98.10049
O        -11.95707       57.25257       98.33144
O        -13.87855       57.10948       97.22789
H        -16.63983       55.56186      101.78494
H        -15.39428       53.69242       99.73980
H        -14.73140       56.61843      100.35704
H        -15.66016       55.99646       98.94560
H        -13.71429       54.61179       98.21128
H        -12.74357       55.20930       99.60296
N        -14.31085       52.90421      102.17893
C        -15.13922       51.76968      101.79386
C        -14.78706       51.26123      100.41172
O        -13.61795       51.01916      100.14385
C        -14.95346       50.58540      102.75426
C        -15.41099       50.90603      104.17579
C        -15.64524       49.62211      104.89353
O        -14.74358       48.83950      105.14547
O        -16.92655       49.29312      105.08360
H        -13.64054       52.77125      102.95288
H        -16.21361       52.05543      101.84241
H        -13.90698       50.20808      102.76676
H        -15.61137       49.77341      102.36116
H        -16.40082       51.40520      104.10387
H        -14.71983       51.58087      104.72255
N        -15.77438       51.00128       99.51004
C        -15.53443       50.45045       98.19340
H        -14.45508       50.28989       97.99159
H        -16.05490       49.47268       98.10942
H        -15.94142       51.14128       97.42694
H        -16.75531       51.16169       99.77769
Ca       -17.97042       47.40294      105.55249
O        -18.47555       47.79070      102.17101
H        -18.63832       48.76634      102.21542
H        -19.06756       47.47226      101.44392
O        -15.41637       46.00340      106.63643
H        -15.06522       46.16687      105.72512
H        -15.62321       46.90531      106.98936
O        -18.28825       44.29700      106.17472
H        -19.02673       43.85900      106.66799
H        -17.93857       43.59322      105.57256
O        -16.43411       45.35346      103.21506
H        -15.68208       44.71004      103.18315
H        -16.75146       45.41025      102.27885
O        -18.48460       47.07160      108.44793
H        -19.05679       46.36873      108.04928
H        -19.01458       47.90299      108.35577

Ca 1.0



