%chk=apoCaM-CA-Ng.loop1.water3.frame1374.chk
%nprocshared=20
%mem=10GB
%nosave
#b3lyp/svp scf=(tight,noincore,xqc) Test 
#IOP(5/87=12) Density=Current Pop=(MK,readradii) iop(6/33=2) iop(6/42=6)

apoCaM-CA-Ng.loop1.water3.frame1374 

   0  1 
C          4.94792       72.89687       70.37708
C          4.51445       71.47276       70.54695
O          5.36875       70.60460       70.66955
H          6.05254       72.96220       70.26891
H          4.47921       73.32742       69.46724
H          4.63833       73.48275       71.26643
N          3.18521       71.15582       70.54312
C          2.68691       69.78769       70.68147
C          2.58874       69.12518       69.30145
O          1.57111       68.52410       68.98159
C          1.28553       69.79429       71.35060
C          1.21612       70.54596       72.65276
O          1.43310       71.74718       72.68822
O          0.83940       69.91050       73.77724
H          2.50564       71.92058       70.41536
H          3.38847       69.21550       71.32999
H          0.96617       68.74267       71.52110
H          0.55504       70.26935       70.65768
N          3.58991       69.27157       68.39305
C          3.50395       68.81745       67.01270
C          3.45518       67.30093       66.93283
O          2.52713       66.81375       66.30223
C          4.59897       69.49250       66.15171
C          4.34548       71.02264       66.12492
C          5.43145       71.81062       65.39305
C          5.11245       73.31616       65.44333
N          6.16905       74.10366       64.81201
H          4.42560       69.79919       68.65730
H          2.54910       69.19109       66.57362
H          4.54686       69.11457       65.10695
H          5.60747       69.27019       66.55614
H          4.29865       71.42228       67.15930
H          3.36130       71.21902       65.64140
H          5.49702       71.47530       64.33557
H          6.40573       71.62749       65.89513
H          5.00640       73.64404       66.50283
H          4.14666       73.50945       64.92439
H          7.06420       73.98425       65.33980
H          6.29843       73.80468       63.81874
H          5.89931       75.11406       64.83156
N          4.30105       66.44690       67.58177
C          5.44080       66.79519       68.43002
C          5.12397       66.58591       69.89620
O          4.05648       66.09565       70.23131
C          6.69186       66.00899       67.98086
C          6.41437       64.58453       67.54871
O          6.11508       63.54317       68.36971
O          6.41980       64.37467       66.34686
H          4.06358       65.44534       67.50978
H          5.67925       67.87195       68.35279
H          7.52409       66.06594       68.70365
H          7.04461       66.53529       67.06470
N          5.98911       67.05950       70.83893
C          5.70931       67.03022       72.26689
C          6.08487       65.71483       72.89135
O          6.57884       64.85086       72.19490
H          6.83413       67.56066       70.52549
H          4.64705       67.29278       72.45563
H          6.34472       67.79221       72.76519
N          5.90158       65.50142       74.22616
C          6.34558       64.28271       74.91732
C          6.91114       64.62963       76.30565
O          6.71884       65.75495       76.74436
C          5.16129       63.28509       74.97377
C          4.78256       62.90766       73.56712
O          5.70971       62.33493       72.76593
O          3.69372       63.22590       73.11953
H          5.41648       66.23473       74.76433
H          7.17226       63.82593       74.33516
H          4.30583       63.76513       75.49874
H          5.39999       62.35612       75.51383
N          7.63621       63.76203       77.08251
C          8.06030       62.42687       76.69510
C          9.05557       62.45241       75.56205
O          9.61563       63.49627       75.26481
H          7.93154       64.08460       78.01733
H          7.18693       61.81058       76.43456
H          8.55072       61.91468       77.55089
N          9.28288       61.31631       74.85081
C         10.15881       61.24190       73.68271
C          9.78389       62.30583       72.65636
O          8.63066       62.39303       72.26485
C         10.09182       59.81786       73.06811
C         10.83866       58.81013       73.95276
O         10.68578       59.80512       71.79753
H          8.75613       60.47358       75.12934
H         11.21097       61.42877       73.99062
H          9.01451       59.53744       72.97144
H         10.30399       59.02275       71.31652
H         10.74072       57.78780       73.53109
H         11.92083       59.06983       73.97623
H         10.45323       58.80658       74.99211
N         10.76399       63.13039       72.17275
C         10.62332       64.19127       71.17707
C         10.01412       63.63798       69.89873
O          8.80985       63.44036       69.83693
C          9.84610       65.42612       71.70829
C         10.42426       65.95046       73.04478
C          9.85512       66.56275       70.66183
C          9.44648       66.86671       73.78810
H         11.72558       62.97439       72.51036
H         11.65548       64.54465       70.95548
H          8.82185       65.08528       71.88849
H         11.39016       66.46908       72.86384
H         10.62627       65.10908       73.73076
H          9.23694       67.42416       70.98167
H         10.89388       66.92029       70.49346
H          9.46789       66.21835       69.68725
H          9.90882       67.21976       74.73261
H          9.15316       67.75154       73.19033
H          8.53432       66.29421       74.05388
N         10.80770       63.37760       68.82957
C         10.31829       62.85902       67.55701
C         10.93367       61.50924       67.20618
O         10.59880       60.99452       66.14941
C         10.57248       63.90525       66.44416
C         12.03668       64.34415       66.33770
O          9.79475       65.04496       66.69154
H         11.81755       63.55309       68.92778
H          9.21919       62.68128       67.59319
H         10.28422       63.46902       65.45747
H          8.88997       64.84433       66.34230
H         12.35855       64.87630       67.25782
H         12.70176       63.47337       66.16519
H         12.14781       65.05909       65.49676
N         11.81975       60.86833       68.02686
C         12.41292       59.56731       67.70945
C         11.31635       58.50864       67.62176
O         10.85413       58.03838       68.65003
C         13.52846       59.22425       68.74124
C         14.72909       60.16204       68.54933
O         13.06031       59.37470       70.06045
H         12.09011       61.32132       68.90940
H         12.89954       59.63431       66.71146
H         13.91298       58.19026       68.58271
H         12.67304       58.50986       70.34759
H         15.51155       59.95174       69.30840
H         15.17012       60.00856       67.54119
H         14.43207       61.22864       68.64323
N         10.77481       58.19463       66.39967
C          9.57065       57.38986       66.17637
C          8.35551       57.99065       66.86068
O          8.38887       58.25636       68.05185
C          9.72982       55.89883       66.52191
C         10.65538       55.20208       65.51080
C         10.64398       53.67700       65.67638
C         11.37617       53.00600       64.50342
N         11.41181       51.55237       64.65845
H         11.19053       58.62676       65.56093
H          9.34428       57.41454       65.08613
H          8.72488       55.43323       66.39622
H         10.05217       55.74126       67.57195
H         11.69216       55.59315       65.59601
H         10.27595       55.42737       64.48866
H          9.59249       53.31050       65.66909
H         11.10985       53.40410       66.64700
H         12.41593       53.39237       64.42450
H         10.83866       53.25707       63.56014
H         12.04072       51.29798       65.45399
H         10.45137       51.17579       64.83101
H         11.78676       51.12551       63.78028
N          7.20238       58.17919       66.15947
C          6.02512       58.78259       66.76473
C          6.26798       60.25737       66.99564
O          6.17037       60.66463       68.14265
C          4.73607       58.52462       65.96070
C          4.41828       57.02217       65.92239
C          3.11856       56.76270       65.22386
O          2.97765       57.06869       64.05079
O          2.10217       56.18093       65.88871
H          7.15405       57.85425       65.18225
H          5.84246       58.29925       67.75321
H          4.79143       58.92428       64.93066
H          3.89745       59.04101       66.47993
H          4.34768       56.63898       66.96478
H          5.22608       56.46628       65.40110
N          6.60128       61.15134       66.01921
C          6.77074       60.90140       64.60279
H          7.79815       61.19465       64.30247
H          6.62412       59.85394       64.30977
H          6.04814       61.52834       64.03715
H          6.76865       62.11416       66.31211
Ca         5.95773       62.90091       70.55911
O          3.06473       62.98018       69.88809
O          8.32169       60.76251       69.79358
H          3.22058       62.55208       70.76558
H          9.30922       60.74263       69.83542
H          3.69103       63.74334       69.87422
H          8.03429       59.85560       70.06221
O          4.63955       59.95643       70.94829
H          4.55540       59.06769       70.52012
H          3.84913       60.02360       71.54113

Ca 1.0



