%chk=apoCaM-CA-Ng.loop1.water4.frame266.chk
%nprocshared=20
%mem=10GB
%nosave
#b3lyp/svp scf=(tight,noincore,xqc) Test 
#IOP(5/87=12) Density=Current Pop=(MK,readradii) iop(6/33=2) iop(6/42=6)

apoCaM-CA-Ng.loop1.water4.frame266 

   0  1 
C          9.71799       28.26482        9.39985
C          9.64450       29.29196       10.48714
O          9.99806       28.98472       11.61719
H         10.77353       27.92790        9.32664
H          9.06888       27.39436        9.62344
H          9.42881       28.69604        8.41830
N          9.24333       30.56230       10.20739
C          9.35578       31.64289       11.17870
C          8.21281       31.59895       12.18055
O          7.99862       32.60223       12.82411
C          9.33541       33.04077       10.47736
C         10.32128       33.25294        9.35458
O         10.39535       32.46973        8.42267
O         10.99964       34.41502        9.28452
H          8.93361       30.77863        9.24825
H         10.34129       31.58590       11.68561
H          9.59467       33.79627       11.24674
H          8.32079       33.29639       10.10144
N          7.35007       30.54748       12.28337
C          6.04364       30.68091       12.90424
C          5.84059       29.66981       14.01912
O          6.16264       28.51382       13.78520
C          4.97310       30.48736       11.79688
C          5.29235       31.31563       10.53073
C          4.06558       31.52148        9.63632
C          4.37567       32.47368        8.46675
N          5.28914       31.87274        7.49209
H          7.52882       29.66644       11.79313
H          5.92077       31.70422       13.28528
H          4.00250       30.81772       12.21584
H          4.87724       29.41847       11.50305
H          6.11726       30.82819        9.95833
H          5.63042       32.32390       10.84374
H          3.27787       32.00598       10.25165
H          3.65895       30.55597        9.25811
H          4.80953       33.42281        8.85877
H          3.42142       32.73464        7.95931
H          5.04145       30.87071        7.32389
H          5.21090       32.38672        6.58422
H          6.27470       31.94214        7.83256
N          5.25693       29.94523       15.23158
C          4.74571       31.23348       15.71304
C          3.77630       31.87177       14.73478
O          4.10581       32.87309       14.11448
C          5.89482       32.10791       16.23606
C          6.53166       31.44004       17.42249
O          5.99630       30.29594       17.93511
O          7.52745       31.94579       17.90160
H          5.14537       29.14599       15.87411
H          4.14926       31.06724       16.62965
H          5.52934       33.09165       16.58899
H          6.66038       32.26832       15.45175
N          2.51735       31.38051       14.56104
C          1.94459       30.34691       15.42160
C          0.46918       30.11130       15.15444
O         -0.06681       30.69326       14.22230
H          1.93386       31.83573       13.84345
H          2.00473       30.71373       16.46949
H          2.51218       29.39780       15.32504
N         -0.31394       29.33064       15.95733
C          0.12502       28.63800       17.16946
C         -0.28145       29.42144       18.40521
O         -1.16973       30.26004       18.33638
C         -0.35207       27.16062       17.19894
C         -1.84914       26.93738       17.10718
O         -2.50309       27.39392       16.18347
O         -2.45718       26.12424       17.99092
H         -1.31380       29.31861       15.72522
H          1.23548       28.61646       17.19354
H          0.00989       26.67870       18.13438
H          0.11700       26.62974       16.34568
N          0.44411       29.27961       19.55187
C          0.26998       30.11581       20.73033
C          0.53498       31.58267       20.43985
O         -0.08148       32.42884       21.07285
H          1.20059       28.57842       19.57705
H          1.00062       29.79331       21.50508
H         -0.74990       29.98329       21.15011
N          1.44502       31.95668       19.49458
C          1.73618       33.35204       19.17148
C          0.86438       33.81853       18.01958
O          0.38075       32.99012       17.25693
C          3.21273       33.49565       18.74719
C          4.20049       32.96019       19.77821
O          3.50152       34.84427       18.54639
H          1.95419       31.22037       18.98302
H          1.55091       33.99636       20.05636
H          3.31867       32.91497       17.79837
H          4.35332       34.87631       18.05754
H          3.83079       32.03338       20.22858
H          5.16771       32.75223       19.28073
H          4.37664       33.70192       20.58105
N          0.71292       35.15488       17.78231
C          0.03057       35.67581       16.60743
C          1.04046       36.22240       15.59546
O          0.62690       36.59288       14.50448
C         -1.05514       36.74288       16.95839
C         -0.48031       38.07369       17.52439
C         -2.13997       36.18834       17.91070
C         -1.39555       39.26651       17.21735
H          1.16792       35.82482       18.41908
H         -0.49182       34.84532       16.08265
H         -1.53367       36.95414       15.97877
H          0.49159       38.32339       17.05398
H         -0.29419       37.97619       18.61799
H         -1.78889       36.15520       18.96794
H         -3.04645       36.82866       17.87383
H         -2.43581       35.15859       17.62432
H         -1.36305       39.46398       16.12263
H         -2.44921       39.08699       17.51066
H         -1.03372       40.17967       17.73618
N          2.37162       36.32970       15.89824
C          3.36979       36.90030       15.01153
C          4.66700       36.10068       15.01189
O          4.99479       35.42380       15.96749
C          3.58466       38.40527       15.32745
C          4.13401       38.68232       16.74716
O          2.35232       39.06153       15.12625
H          2.69052       36.08420       16.82908
H          2.98427       36.84256       13.97185
H          4.31972       38.81292       14.60045
H          2.29195       39.85824       15.71433
H          4.28470       39.77886       16.87581
H          3.41533       38.34859       17.52507
H          5.11747       38.19504       16.90616
N          5.46899       36.16394       13.92729
C          6.71495       35.42187       13.76573
C          7.72254       35.63159       14.91242
O          7.71164       36.65177       15.58302
C          7.35246       35.82066       12.41226
C          7.75087       37.31168       12.44318
O          6.42510       35.55710       11.38456
H          5.12989       36.74092       13.14635
H          6.45360       34.33789       13.72485
H          8.26291       35.22535       12.22328
H          6.75628       35.97970       10.55024
H          6.89467       37.95897       12.72502
H          8.55571       37.47195       13.18925
H          8.13175       37.63909       11.45795
N          8.67466       34.68130       15.10355
C          9.84685       34.73227       15.97830
C         10.31225       33.33791       16.44426
O         11.00306       33.25538       17.45097
C         11.01678       35.40726       15.22744
C         11.28921       34.79587       13.82967
C         12.53783       35.33454       13.09807
C         12.90165       36.81967       13.29071
N         11.89598       37.75037       12.78144
H          8.63016       33.95545       14.41825
H          9.59650       35.32537       16.88672
H         11.93110       35.37785       15.85505
H         10.73112       36.46336       15.07757
H         10.39846       34.98928       13.20178
H         11.41753       33.69124       13.89292
H         12.43412       35.10055       12.01252
H         13.41858       34.76995       13.46807
H         13.85867       36.99420       12.74996
H         13.09729       37.02367       14.36676
H         11.59374       37.48128       11.81888
H         11.07108       37.78767       13.41579
H         12.31778       38.70773       12.75285
N         10.02679       32.21521       15.72289
C         10.44460       30.85960       16.01096
C         11.82709       30.60077       15.45714
O         12.09240       30.90278       14.30007
C          9.40595       29.91480       15.35645
C          9.69970       28.42247       15.49166
C          9.78734       28.05919       16.92419
O         10.82900       27.66353       17.42120
O          8.71517       28.28095       17.68696
H          9.50055       32.28750       14.85930
H         10.43041       30.68224       17.10976
H          9.32798       30.13131       14.27385
H          8.42175       30.13966       15.82414
H         10.62945       28.15835       14.94545
H          8.84999       27.85653       15.05286
N         12.73692       29.96336       16.24087
C         14.09242       29.66242       15.84757
H         14.76483       29.99634       16.66430
H         14.20623       28.56409       15.72406
H         14.38631       30.17831       14.91019
H         12.44452       29.63812       17.17162
Ca         6.98313       28.59969       19.02486
O          7.36937       28.00377       22.07495
H          8.33038       28.21952       22.00073
H          7.34628       27.21598       22.67231
O          5.02162       29.68333       20.99111
H          4.17727       29.96894       20.56311
H          5.22100       30.38135       21.66474
O          9.80230       27.30968       20.37397
H          9.70846       28.02277       19.70162
H          9.33190       26.52794       19.99140
O          8.62493       30.31261       20.25269
H          8.67308       30.71241       19.35651
H          9.00283       31.00540       20.84028

Ca 1.0



