%chk=apoCaM-CA-Ng.loop1.water3.frame957.chk
%nprocshared=20
%mem=10GB
%nosave
#b3lyp/svp scf=(tight,noincore,xqc) Test 
#IOP(5/87=12) Density=Current Pop=(MK,readradii) iop(6/33=2) iop(6/42=6)

apoCaM-CA-Ng.loop1.water3.frame957 

   0  1 
C         60.17121       71.41541       37.75326
C         59.78952       71.68178       39.18076
O         58.80028       72.36247       39.41042
H         61.09847       70.80733       37.68573
H         59.35184       70.87123       37.24055
H         60.35102       72.38079       37.23487
N         60.53781       71.17641       40.20051
C         60.24616       71.43365       41.60830
C         60.23881       72.96391       41.87975
O         61.37357       73.59333       41.35191
C         61.15855       70.57269       42.53672
C         62.65307       70.76238       42.44480
O         63.24680       70.59465       41.39228
O         63.36138       71.01559       43.56284
H         61.34217       70.58396       39.95324
H         59.21375       71.07835       41.81899
H         60.96001       69.50671       42.29431
H         60.85085       70.72751       43.59303
N         60.04250       73.32102       43.29641
C         59.59041       74.71872       43.49530
C         60.35858       75.29661       44.67523
O         60.22442       74.78200       45.77608
C         58.06053       74.77015       43.75849
C         57.48899       76.19655       43.88759
C         56.00370       76.14164       44.28881
C         55.37228       77.53894       44.37951
N         53.98025       77.45274       44.82749
H         59.39934       72.64871       43.77650
H         59.81043       75.32422       42.58588
H         57.84614       74.20821       44.69480
H         57.53003       74.26076       42.92412
H         57.60481       76.72455       42.91565
H         58.03992       76.76409       44.66854
H         55.92342       75.64677       45.28214
H         55.43472       75.54056       43.54633
H         55.40781       78.02531       43.37933
H         55.94495       78.16762       45.09689
H         53.93744       77.04002       45.78804
H         53.56564       78.41228       44.85715
H         53.42073       76.86359       44.16867
N         61.19499       76.36289       44.50738
C         62.00271       76.95656       45.58107
C         62.75639       78.17708       45.06139
O         63.31247       78.10877       43.97460
C         63.00063       75.95762       46.22197
C         63.92079       75.30999       45.23546
O         64.70886       75.96300       44.57325
O         63.80392       73.99762       45.01244
H         61.25563       76.77347       43.56249
H         61.32984       77.25656       46.40401
H         62.42649       75.15751       46.73140
H         63.60045       76.46775       47.00604
N         62.89010       79.32788       45.77420
C         62.35848       79.57242       47.10248
C         60.85732       79.71198       47.12404
O         60.19167       79.43904       46.13584
H         63.46516       80.07802       45.35996
H         62.76144       80.55440       47.43559
H         62.70676       78.80330       47.82378
N         60.26198       80.21001       48.24018
C         58.85238       80.57949       48.29367
C         58.59412       81.65551       47.24239
O         57.74357       81.47003       46.38340
C         58.51453       81.08680       49.71704
C         57.06953       81.45190       49.93546
O         56.68278       81.89604       51.14633
O         56.24225       81.34728       49.04375
H         60.85914       80.40221       49.06043
H         58.22614       79.68092       48.09160
H         59.14023       81.97295       49.95780
H         58.76736       80.28392       50.44388
N         59.34761       82.79284       47.23723
C         59.24232       83.86709       46.25761
C         59.73548       83.52392       44.85581
O         59.84161       84.44302       44.05607
H         60.04379       82.91836       47.98785
H         59.90382       84.68925       46.61092
H         58.20551       84.26271       46.22394
N         60.09259       82.26113       44.48402
C         60.72661       81.94169       43.20870
C         62.23226       82.14305       43.35322
O         62.70623       82.39379       44.45368
C         60.39611       80.47375       42.79159
C         58.89086       80.24202       42.63695
O         61.00939       80.15265       41.56932
H         60.02087       81.51018       45.16426
H         60.34613       82.62980       42.42063
H         60.78193       79.79901       43.59093
H         61.21631       79.18106       41.58640
H         58.35468       80.43960       43.58721
H         58.48232       80.89974       41.84022
H         58.70645       79.18403       42.34908
N         63.04843       82.04701       42.26855
C         64.50634       82.16231       42.33745
C         65.01612       83.53052       42.78678
O         66.23012       83.63980       42.92703
C         65.18855       81.71696       41.00079
C         64.66617       82.49087       39.75771
C         65.04720       80.19076       40.83777
C         65.48468       82.23088       38.49195
H         62.61054       81.83862       41.36651
H         64.86491       81.45685       43.12070
H         66.27916       81.91548       41.10147
H         64.70692       83.58192       39.96038
H         63.61489       82.21909       39.53125
H         63.98364       79.89083       40.73983
H         65.61335       79.82049       39.96107
H         65.47734       79.67753       41.72601
H         65.05438       82.81529       37.65123
H         66.53657       82.55016       38.64504
H         65.46168       81.16224       38.19854
N         64.20746       84.58747       43.10011
C         64.73959       85.83338       43.65046
C         64.31978       87.04730       42.85124
O         63.46260       86.95001       41.97901
C         64.36875       85.97369       45.15209
C         62.85922       85.96729       45.41745
O         64.94795       84.92026       45.87784
H         63.18561       84.50223       43.00242
H         65.85088       85.82477       43.60235
H         64.75828       86.94270       45.54367
H         65.90281       85.15714       46.01647
H         62.35616       86.79400       44.87520
H         62.40758       85.00162       45.11386
H         62.67355       86.09457       46.50564
N         64.94504       88.23375       43.08384
C         64.66031       89.47106       42.37765
C         65.84107       89.82407       41.48784
O         65.65521       89.90571       40.28363
C         64.30324       90.58568       43.40009
C         64.05518       91.94234       42.73316
O         65.32436       90.72769       44.35650
H         65.70370       88.25173       43.78562
H         63.77771       89.34223       41.70889
H         63.36272       90.26172       43.90702
H         64.89448       90.97599       45.21637
H         64.97802       92.30762       42.23269
H         63.23922       91.86637       41.98528
H         63.76523       92.68908       43.50315
N         67.07652       90.06950       42.01406
C         68.22103       90.47856       41.20434
C         69.44752       89.62325       41.47975
O         69.54816       89.02256       42.53859
C         68.57339       91.95823       41.50390
C         68.82320       92.21385       43.00527
C         69.34931       93.62046       43.29086
C         69.53510       93.80683       44.80565
N         70.13745       95.10183       45.11203
H         67.20228       90.00433       43.03123
H         67.98210       90.39965       40.12154
H         67.74054       92.61519       41.16975
H         69.47773       92.23294       40.91687
H         69.57747       91.49506       43.38872
H         67.87262       92.07016       43.56273
H         68.63969       94.38491       42.90608
H         70.32799       93.74459       42.77782
H         70.19316       93.00279       45.20553
H         68.54554       93.72818       45.31045
H         69.53684       95.87663       44.74923
H         70.22868       95.19624       46.14962
H         71.09045       95.15859       44.68456
N         70.47845       89.63222       40.58315
C         71.80638       89.10041       40.87282
C         71.78725       87.65392       41.37065
O         72.26185       87.44789       42.47936
C         72.76052       89.33203       39.67438
C         74.22227       89.01868       40.02673
C         75.12497       89.23436       38.84546
O         75.86021       88.21291       38.36598
O         75.20624       90.33401       38.32112
H         70.33369       90.11933       39.68565
H         72.21307       89.72409       41.70186
H         72.70469       90.40365       39.37915
H         72.45107       88.74119       38.79535
H         74.31373       87.96298       40.35840
H         74.55193       89.68131       40.85658
N         71.26680       86.59019       40.69224
C         70.62828       86.64936       39.39717
H         69.75984       87.33765       39.42429
H         71.34549       86.94463       38.61274
H         70.25916       85.63707       39.12516
H         71.30450       85.66534       41.14946
Ca        62.86057       73.62747       43.04197
O         66.28248       72.80239       43.94216
H         66.28712       73.13966       44.87306
H         66.83468       71.98186       43.97549
O         66.50879       75.44826       42.01681
H         66.14817       76.34316       42.23939
H         67.21303       75.28951       42.69464
O         63.26679       76.09098       41.25943
H         62.37660       76.23062       40.84941
H         63.52566       76.98363       41.59860

Ca 1.0



