%chk=apoCaM-CA-Ng.loop1.water3.frame1470.chk
%nprocshared=20
%mem=10GB
%nosave
#b3lyp/svp scf=(tight,noincore,xqc) Test 
#IOP(5/87=12) Density=Current Pop=(MK,readradii) iop(6/33=2) iop(6/42=6)

apoCaM-CA-Ng.loop1.water3.frame1470 

   0  1 
C         51.36105       67.37225       63.23157
C         50.88348       68.74302       63.60386
O         51.49346       69.37003       64.45936
H         52.24225       67.08281       63.84444
H         50.55196       66.63125       63.40363
H         51.64995       67.36238       62.16082
N         49.76135       69.25844       63.02119
C         49.22623       70.57623       63.35698
C         48.01987       70.43840       64.26232
O         46.97169       71.01669       64.00818
C         48.95118       71.40610       62.08067
C         47.88638       70.83722       61.16467
O         47.60437       71.43154       60.13739
O         47.22548       69.69998       61.46244
H         49.24921       68.66242       62.35574
H         49.97242       71.12753       63.95958
H         49.89785       71.49864       61.50690
H         48.63165       72.42730       62.38362
N         48.11944       69.65378       65.36526
C         47.02639       69.43634       66.29410
C         46.72748       70.67533       67.13355
O         45.54603       70.96658       67.25976
C         47.20992       68.10892       67.06484
C         47.16556       66.94656       66.03849
C         47.33509       65.55183       66.63971
C         47.26784       64.50130       65.51347
N         47.53530       63.15643       66.01638
H         48.99900       69.13940       65.52214
H         46.10108       69.25198       65.69945
H         46.36901       67.97225       67.77955
H         48.16555       68.11171       67.63220
H         47.97070       67.08541       65.28532
H         46.18729       66.97583       65.50647
H         46.53337       65.35266       67.38425
H         48.32319       65.49634       67.14325
H         48.02260       64.74362       64.73161
H         46.26069       64.52581       65.03725
H         47.49025       62.48127       65.21843
H         48.49423       63.11919       66.43210
H         46.82302       62.88804       66.73255
N         47.65159       71.54632       67.65164
C         49.11240       71.43662       67.63700
C         49.75507       72.42122       66.67444
O         49.07244       73.25770       66.10037
C         49.66881       71.60700       69.06398
C         48.99944       72.69741       69.87102
O         49.06260       74.02910       69.61076
O         48.31390       72.33680       70.81364
H         47.26132       72.40076       68.07869
H         49.42446       70.43669       67.28555
H         50.76880       71.72433       69.07064
H         49.44613       70.65212       69.59095
N         51.08195       72.28123       66.37015
C         51.74732       73.03737       65.31783
C         52.10398       74.44527       65.70749
O         51.96924       74.80489       66.86134
H         51.60967       71.51153       66.80993
H         51.11059       73.03812       64.41092
H         52.70675       72.53807       65.06074
N         52.58484       75.30535       64.76425
C         53.02095       76.67389       65.05541
C         54.27040       77.01654       64.24135
O         54.44351       76.44390       63.17461
C         51.87547       77.67368       64.77586
C         50.71775       77.36025       65.68475
O         49.63823       77.04260       65.21541
O         50.92212       77.29956       67.02010
H         52.60297       74.97613       63.78739
H         53.26934       76.74771       66.13146
H         51.56205       77.60505       63.70980
H         52.20563       78.71303       64.96924
N         55.18720       77.95940       64.62004
C         55.12418       78.74429       65.84067
C         55.32094       77.91871       67.08906
O         55.82561       76.80740       67.02101
H         55.97187       78.15394       63.97877
H         54.15680       79.28000       65.87950
H         55.92157       79.51895       65.83502
N         54.91422       78.42648       68.28344
C         55.02205       77.71641       69.55320
C         54.27090       76.38877       69.51808
O         53.13949       76.33801       69.06264
C         54.53810       78.62112       70.71815
C         54.60681       77.90462       72.07739
O         53.23185       79.07180       70.47883
H         54.48850       79.36678       68.28006
H         56.09675       77.51191       69.75524
H         55.22297       79.50088       70.74454
H         53.05453       79.79790       71.13378
H         54.32497       78.60608       72.89020
H         53.90226       77.04627       72.10747
H         55.63550       77.53481       72.27162
N         54.86085       75.28935       70.07242
C         54.30068       73.94711       70.21186
C         52.95891       73.96735       70.93585
O         51.95735       74.32528       70.33465
C         54.18055       73.17266       68.86640
C         55.40943       73.31412       67.93646
C         53.85294       71.68677       69.11941
C         56.71469       72.73442       68.47898
H         55.79387       75.41932       70.49329
H         55.03408       73.38529       70.83359
H         53.34026       73.60682       68.30647
H         55.56728       74.38740       67.71399
H         55.18173       72.81340       66.96939
H         53.71356       71.15064       68.15716
H         54.66345       71.19048       69.69202
H         52.92561       71.57739       69.71363
H         57.00301       73.22804       69.42872
H         56.62941       71.64004       68.63493
H         57.52004       72.90622       67.73371
N         52.86356       73.53057       72.21727
C         51.59907       73.37102       72.92981
C         51.50005       74.24869       74.17153
O         50.52128       74.09711       74.88691
C         51.37420       71.86424       73.24171
C         52.56449       71.16461       73.90500
O         51.09687       71.18651       72.04390
H         53.73160       73.26371       72.70386
H         50.73206       73.68589       72.30703
H         50.50356       71.76590       73.93557
H         50.11297       71.06825       71.99938
H         53.43301       71.12957       73.21194
H         52.85778       71.67378       74.84446
H         52.29444       70.11042       74.12677
N         52.42790       75.20150       74.48607
C         52.31152       76.05926       75.66803
C         51.15910       77.06052       75.48503
O         51.38388       78.13536       74.94708
C         53.67729       76.74680       75.94918
C         53.67984       77.51306       77.27667
O         54.67282       75.75497       76.00697
H         53.25338       75.31321       73.87996
H         52.11395       75.40798       76.54888
H         53.90411       77.44498       75.10966
H         55.54886       76.21213       75.90813
H         53.47425       76.81664       78.11795
H         54.68067       77.96878       77.44058
H         52.92277       78.32257       77.27640
N         49.88685       76.73868       75.87789
C         48.68304       77.55689       75.67944
C         48.33576       77.73688       74.21426
O         49.21040       78.02464       73.41114
C         48.70671       78.90849       76.39817
C         49.01725       78.74522       77.88803
C         48.73496       80.04452       78.64358
C         49.12764       79.91043       80.11779
N         48.74264       81.10358       80.86883
H         49.74271       75.83447       76.34917
H         47.83561       76.99985       76.14300
H         47.68568       79.34271       76.28553
H         49.43240       79.61006       75.93644
H         50.08231       78.44634       77.99973
H         48.37412       77.94927       78.32644
H         47.64576       80.26273       78.56879
H         49.29967       80.88703       78.18845
H         50.22869       79.76219       80.18675
H         48.62423       79.02474       80.56546
H         47.70124       81.20514       80.85969
H         49.06195       81.00107       81.85883
H         49.18388       81.95508       80.45210
N         47.04856       77.57122       73.79230
C         46.68859       77.52381       72.38197
C         47.42120       76.35257       71.75760
O         48.16870       76.59048       70.82135
C         45.15994       77.44021       72.18367
C         44.48298       78.76513       72.56443
C         42.98954       78.65296       72.47306
O         42.33128       77.78516       73.26561
O         42.36298       79.35948       71.69989
H         46.31193       77.40968       74.49616
H         47.02426       78.45567       71.86935
H         44.73424       76.62292       72.79251
H         44.93231       77.23850       71.11249
H         44.84610       79.56314       71.87763
H         44.74353       79.05273       73.60388
N         47.36536       75.07500       72.23401
C         46.53692       74.58746       73.31639
H         45.46893       74.62727       73.03308
H         46.77431       73.51958       73.50933
H         46.72750       75.13690       74.25652
H         47.99179       74.39322       71.80586
Ca        49.91171       75.68619       68.28933
O         47.26672       75.86256       67.30329
H         47.09562       75.19902       66.58966
H         47.82026       76.55656       66.86645
O         51.05846       76.78061       71.07015
H         51.40601       77.69418       71.19817
H         50.66849       76.54418       71.94643
O         49.43242       78.79984       69.45773
H         48.97191       79.03062       68.61248
H         49.39237       79.62636       70.00111

Ca 1.0



