%chk=apoCaM-CA-Ng.loop2.water3.frame526.chk
%nprocshared=20
%mem=10GB
%nosave
#b3lyp/svp scf=(tight,noincore,xqc) Test 
#IOP(5/87=12) Density=Current Pop=(MK,readradii) iop(6/33=2) iop(6/42=6)

apoCaM-CA-Ng.loop2.water3.frame526 

   -2  1 
C         71.19491        7.57755       48.00486
C         70.99955        6.26336       47.30029
O         70.68179        6.26261       46.12004
H         72.00445        8.15550       47.51474
H         70.25121        8.16250       47.96557
H         71.46246        7.43140       49.07365
N         71.14470        5.09421       47.98043
C         70.88879        3.78440       47.39285
C         71.88123        3.44403       46.28509
O         73.07316        3.39773       46.54155
C         70.95632        2.70436       48.50265
C         70.58605        1.31019       48.05609
O         70.61411        0.30592       48.95210
O         70.25001        1.07409       46.90620
H         71.39292        5.14449       48.98143
H         69.84737        3.77871       46.99941
H         70.24938        2.98448       49.31411
H         71.98211        2.67925       48.93121
N         71.42948        3.08286       45.05120
C         72.27813        2.47646       44.02589
C         73.31023        3.43502       43.42585
O         72.92354        4.54387       43.08583
C         71.41009        1.93057       42.88913
H         70.41191        3.11642       44.88353
H         72.74886        1.59707       44.50147
H         70.85570        2.75012       42.38544
H         72.04717        1.40853       42.14258
H         70.68143        1.19545       43.29372
N         74.62205        3.09256       43.18638
C         75.18431        1.76274       43.41509
C         75.82252        1.63856       44.78296
O         76.06048        2.64295       45.43865
C         76.06098        1.24210       42.25283
C         77.38413        1.88029       41.90519
O         78.06923        1.31530       41.06809
O         77.87109        3.02355       42.41637
H         75.23055        3.80272       42.75676
H         74.35725        1.03319       43.40155
H         75.45293        1.23733       41.32303
H         76.30260        0.18450       42.49503
N         76.04571        0.39672       45.30908
C         76.55982        0.15474       46.65179
C         75.65040        0.70918       47.72983
O         74.63987        1.31248       47.40130
H         75.81324       -0.43056       44.73847
H         77.55933        0.60952       46.74402
H         76.64750       -0.94271       46.80349
N         75.89230        0.54458       49.06067
C         76.97221       -0.24620       49.64981
C         78.36379        0.33909       49.41998
O         78.60017        1.48960       49.76035
C         76.78420       -0.35845       51.18599
C         75.54817       -1.13205       51.59687
N         75.66035       -2.26685       52.32838
O         74.43780       -0.72699       51.28814
H         75.20422        0.97124       49.70080
H         76.92725       -1.28443       49.25182
H         76.74931        0.65620       51.64015
H         77.67164       -0.88267       51.60520
H         76.58264       -2.62841       52.61226
H         74.81937       -2.78728       52.61924
N         79.37532       -0.48191       49.00761
C         80.79089       -0.15735       49.15725
C         81.44976        0.58375       48.01226
O         82.65748        0.76023       48.08325
H         79.14638       -1.47204       48.83128
H         81.33805       -1.12056       49.24744
H         80.95669        0.38518       50.11481
N         80.75803        1.05744       46.94242
C         81.37920        1.77404       45.82695
C         81.01277        3.23481       45.96240
O         80.22412        3.77073       45.19570
C         80.98268        1.12506       44.48196
C         81.61974       -0.26706       44.35135
O         79.58495        1.03578       44.37984
H         79.73660        0.95173       46.93293
H         82.49102        1.74863       45.87551
H         81.37982        1.76407       43.66012
H         79.38661        0.71268       43.46337
H         82.72709       -0.18394       44.41005
H         81.26763       -0.94618       45.15598
H         81.36419       -0.71348       43.36732
N         81.55511        3.91899       47.00788
C         81.16180        5.26242       47.40065
C         81.61871        6.29170       46.37975
O         82.80704        6.40887       46.11336
C         81.68934        5.62624       48.82221
C         81.08336        6.99295       49.24393
C         81.30299        4.53473       49.85164
C         81.56949        7.50709       50.59667
H         82.23734        3.41448       47.58839
H         80.05357        5.26513       47.48369
H         82.79959        5.70181       48.79193
H         79.97592        6.90860       49.26672
H         81.34830        7.76634       48.49479
H         80.20009        4.41850       49.90271
H         81.74147        3.54663       49.61709
H         81.69697        4.77372       50.85681
H         81.11306        8.49669       50.79164
H         81.26369        6.83805       51.42473
H         82.67299        7.62081       50.58838
N         80.69457        7.09585       45.79516
C         81.00171        8.14284       44.83520
C         81.69162        9.28605       45.55885
O         82.79990        9.65678       45.20040
C         79.71290        8.67185       44.13712
C         78.87143        7.57043       43.54930
O         78.74029        7.46140       42.34102
O         78.24447        6.70745       44.37397
H         79.72364        6.95884       46.07213
H         81.64413        7.71906       44.02999
H         80.02300        9.38072       43.33689
H         79.05433        9.21068       44.84052
N         81.04357        9.90646       46.58713
C         81.55241       11.06762       47.30765
C         80.38478       11.71323       48.05395
O         80.41634       11.79704       49.27604
C         82.71974       10.66786       48.24989
C         83.31796       11.87244       48.94916
C         83.94561       12.88437       48.20143
C         83.24949       12.00158       50.34986
C         84.48453       14.00592       48.83895
C         83.78667       13.12852       50.98281
C         84.40249       14.12991       50.22772
H         80.10072        9.56505       46.82992
H         81.92286       11.81371       46.57414
H         83.52771       10.16455       47.67882
H         82.33648        9.93940       48.99637
H         84.01785       12.80580       47.12449
H         82.77133       11.23892       50.95231
H         84.96395       14.78076       48.25481
H         83.72357       13.22823       52.05910
H         84.81654       15.00195       50.71804
N         79.29037       12.18971       47.37890
C         78.15010       12.82932       48.01380
C         77.41716       11.99833       49.05221
O         76.55638       12.55910       49.71511
C         77.19288       13.10331       46.84733
C         78.15085       13.34582       45.70627
C         79.17969       12.24597       45.93389
H         78.53045       13.76706       48.47851
H         76.64711       12.16225       46.59485
H         76.44643       13.90355       47.03378
H         77.69603       13.34162       44.69292
H         78.63950       14.33071       45.88274
H         78.80412       11.27123       45.57218
H         80.11913       12.53333       45.41789
N         77.65367       10.66256       49.23261
C         76.95722        9.90686       50.26300
C         77.43315       10.41218       51.60835
O         76.62077       10.87575       52.39668
C         77.18809        8.37750       50.18541
C         76.51427        7.63808       49.01036
C         77.21545        7.72507       47.68541
O         77.66233        6.70568       47.18892
O         77.28564        8.87719       46.99582
H         78.34306       10.17938       48.64626
H         75.85868       10.06230       50.16420
H         76.68782        7.96494       51.09061
H         78.26146        8.10837       50.25685
H         75.45560        7.95540       48.89969
H         76.50617        6.56008       49.28896
N         78.76017       10.37092       51.91546
C         79.31854       10.85752       53.15811
H         80.04620       11.66656       52.93601
H         78.54201       11.25900       53.84153
H         79.85019       10.02868       53.67007
H         79.41991        9.98992       51.22254
Ca        77.34522        4.80560       43.64662
O         74.99904        6.95052       44.32806
H         74.80343        5.98807       44.20847
H         75.59887        7.17474       43.57335
O         77.88432        3.81621       47.93686
H         78.12281        2.98932       47.44840
H         77.18045        3.53719       48.57445
O         75.21175        5.28056       46.86159
H         75.23473        4.50661       47.47742
H         74.40389        5.78668       47.12817

Ca 1.0



