%chk=apoCaM-CA-Ng.loop3.water2.frame708.chk
%nprocshared=20
%mem=10GB
%nosave
#b3lyp/svp scf=(tight,noincore,xqc) Test 
#IOP(5/87=12) Density=Current Pop=(MK,readradii) iop(6/33=2) iop(6/42=6)

apoCaM-CA-Ng.loop3.water2.frame708 

   0  1 
C         94.40981      -18.92385      -22.22421
C         94.08961      -20.33465      -22.61753
O         94.46767      -20.75971      -23.69803
H         94.99763      -18.41382      -23.01598
H         93.47567      -18.35972      -22.03094
H         95.02179      -18.94106      -21.29481
N         93.43859      -21.13928      -21.73764
C         93.26707      -22.57199      -21.93615
C         92.26131      -22.91238      -23.04554
O         91.11332      -22.50054      -22.96153
C         92.88975      -23.21425      -20.58689
C         93.03626      -24.70471      -20.58419
O         92.82422      -25.39120      -19.44776
O         93.39621      -25.29544      -21.58676
H         93.16921      -20.72897      -20.82892
H         94.26346      -22.98459      -22.17663
H         91.86602      -22.90974      -20.29224
H         93.59706      -22.84730      -19.81149
N         92.63798      -23.68967      -24.10750
C         91.76307      -24.09344      -25.21169
C         90.60211      -24.97233      -24.75541
O         89.57668      -24.99327      -25.42062
C         92.57300      -24.81135      -26.33394
C         93.22298      -26.15341      -25.91585
C         94.04909      -26.76273      -27.06332
C         94.71746      -28.08064      -26.63535
N         95.51205      -28.65276      -27.72371
H         93.60654      -24.00533      -24.13854
H         91.34795      -23.16349      -25.65968
H         93.37529      -24.11969      -26.67453
H         91.90113      -25.00037      -27.20013
H         92.43089      -26.87408      -25.62128
H         93.89952      -26.00008      -25.04985
H         94.84184      -26.04381      -27.36659
H         93.38777      -26.95428      -27.93648
H         93.93948      -28.81351      -26.32625
H         95.38294      -27.89078      -25.76648
H         95.96246      -29.53667      -27.39169
H         94.89853      -28.87447      -28.54115
H         96.26222      -27.98442      -28.01509
N         90.73398      -25.77670      -23.66535
C         89.71297      -26.68918      -23.15185
C         89.32810      -26.36510      -21.70074
O         88.47483      -27.05240      -21.15735
C         90.21818      -28.14930      -23.28561
C         91.63690      -28.33004      -22.79417
O         92.49236      -28.76738      -23.54700
O         91.99391      -27.87604      -21.58056
H         91.63504      -25.76438      -23.17595
H         88.77185      -26.60702      -23.74049
H         90.19387      -28.43347      -24.36118
H         89.52495      -28.83237      -22.74937
N         89.86880      -25.30917      -21.03095
C         89.49106      -24.88229      -19.69128
C         89.97683      -25.73304      -18.52613
O         89.88135      -25.22036      -17.41879
H         90.52652      -24.69453      -21.52265
H         88.39407      -24.71742      -19.62474
H         89.96099      -23.88895      -19.53298
N         90.46866      -27.00834      -18.63761
C         90.93168      -27.76495      -17.46569
C         92.27374      -28.44518      -17.70711
O         92.71172      -28.54182      -18.83807
C         89.90973      -28.84918      -17.05595
C         88.56276      -28.29095      -16.66366
N         87.73699      -27.73593      -17.58091
O         88.19998      -28.36910      -15.49925
H         90.46320      -27.47694      -19.55242
H         91.06538      -27.07739      -16.60144
H         90.31993      -29.38446      -16.17133
H         89.77650      -29.59563      -17.86864
H         87.99758      -27.69467      -18.57511
H         86.81687      -27.36726      -17.29938
N         92.95667      -28.99416      -16.66287
C         94.17800      -29.77929      -16.78811
C         95.34014      -29.01262      -17.37782
O         95.66649      -27.94961      -16.86814
H         92.57048      -28.88230      -15.71283
H         93.97257      -30.69612      -17.38075
H         94.48283      -30.10256      -15.76897
N         96.06967      -29.54657      -18.40678
C         97.27238      -28.91001      -18.95266
C         96.90726      -27.73731      -19.90260
O         95.79927      -27.05792      -19.42175
C         98.10696      -29.94097      -19.74633
C         98.59095      -31.15506      -18.96726
C         99.10145      -32.23962      -19.70119
C         98.54757      -31.25513      -17.55874
C         99.53335      -33.40170      -19.05611
C         98.99558      -32.41455      -16.91539
C         99.48010      -33.49366      -17.65970
O         99.88719      -34.61171      -17.02489
H         95.81688      -30.48968      -18.73886
H         97.88635      -28.53315      -18.10429
H         98.99642      -29.45649      -20.20637
H         97.45393      -30.30326      -20.57088
H         99.14566      -32.19270      -20.78230
H         98.17881      -30.44878      -16.94198
H         99.90490      -34.23135      -19.64427
H         98.95981      -32.47694      -15.83454
H        100.21031      -35.38766      -17.50519
N         98.07212      -26.85036      -20.11594
C         97.89981      -25.53204      -20.77525
C         97.33820      -25.67177      -22.17875
O         96.17128      -26.01073      -22.31496
C         97.06947      -24.48870      -19.93610
C         97.00969      -23.08262      -20.59281
C         97.56165      -24.37721      -18.48179
C         98.35656      -22.38123      -20.77328
H         98.61978      -26.72512      -19.23444
H         98.93017      -25.12933      -20.86473
H         96.01114      -24.81116      -19.88718
H         96.35561      -22.42804      -19.97486
H         96.53328      -23.16204      -21.58605
H         96.95062      -23.63302      -17.92743
H         97.44187      -25.34198      -17.94774
H         98.62826      -24.07730      -18.43848
H         98.86125      -22.22729      -19.79851
H         99.01826      -22.95594      -21.45158
H         98.18503      -21.38503      -21.23280
N         98.10804      -25.39236      -23.27664
C         97.56387      -25.38113      -24.63225
C         98.66085      -25.54431      -25.66960
O         98.80281      -24.69452      -26.54014
C         96.83763      -24.04713      -24.88005
O         95.87386      -23.82744      -23.90841
H         99.10393      -25.15931      -23.14296
H         96.86918      -26.24022      -24.75795
H         96.35530      -24.05054      -25.88302
H         97.59438      -23.22693      -24.82759
H         95.66925      -22.86084      -23.95886
N         99.48720      -26.62606      -25.63304
C        100.55566      -26.81483      -26.60847
C        100.42601      -28.15920      -27.30860
O         99.75466      -29.03041      -26.77640
C        101.89450      -26.69589      -25.89459
H         99.37273      -27.31628      -24.87524
H        100.49828      -26.01680      -27.37411
H        101.97152      -25.69494      -25.41692
H        101.99035      -27.47560      -25.10958
H        102.71910      -26.80279      -26.61748
N        100.96075      -28.41520      -28.54298
C        101.67075      -27.45776      -29.38648
C        102.86568      -28.11722      -30.07085
O        102.67790      -29.18865      -30.63547
C        100.70187      -26.95196      -30.45644
H        100.73456      -29.33184      -28.96338
H        101.98200      -26.57138      -28.81307
H        100.32431      -27.78807      -31.08250
H         99.83553      -26.45457      -29.96843
H        101.20715      -26.20676      -31.10771
N        104.11296      -27.56256      -30.14389
C        104.46398      -26.23044      -29.65568
C        104.91532      -26.26350      -28.20592
O        105.12911      -25.19389      -27.64499
C        105.58035      -25.60827      -30.52456
C        105.16742      -25.47247      -31.99933
C        106.24510      -24.80017      -32.80050
O        105.98971      -23.63782      -33.43110
O        107.35281      -25.30539      -32.89208
H        104.83065      -28.08211      -30.67364
H        103.59043      -25.55423      -29.75930
H        106.50188      -26.22805      -30.44997
H        105.81100      -24.59104      -30.13524
H        104.23682      -24.86813      -32.06581
H        104.96920      -26.47200      -32.44129
N        105.10817      -27.42980      -27.52849
C        105.56015      -27.45209      -26.15404
H        106.54308      -26.94174      -26.06962
H        104.82537      -26.93857      -25.49948
H        105.67187      -28.50106      -25.80800
H        104.95042      -28.33737      -27.99197
Ca        94.14974      -27.72798      -20.86120
O         93.93693      -30.72029      -21.34322
H         94.24625      -31.21011      -20.54082
H         94.33289      -31.21444      -22.10407
O         95.87803      -28.72793      -23.26791
H         96.79784      -28.60595      -22.92279
H         95.81699      -29.69315      -23.47554

Ca 1.0



