%chk=apoCaM-CA-Ng.loop3.water4.frame186.chk
%nprocshared=20
%mem=10GB
%nosave
#b3lyp/svp scf=(tight,noincore,xqc) Test 
#IOP(5/87=12) Density=Current Pop=(MK,readradii) iop(6/33=2) iop(6/42=6)

apoCaM-CA-Ng.loop3.water4.frame186 

   0  1 
C         86.70381       16.91665        6.79060
C         85.96687       15.78328        6.14393
O         84.74600       15.80280        6.13340
H         87.37485       17.40343        6.05434
H         85.99277       17.67208        7.19025
H         87.30778       16.52283        7.63593
N         86.66027       14.74053        5.59722
C         86.05030       13.54242        5.01740
C         85.37554       12.66608        6.06803
O         84.78701       11.66171        5.69156
C         85.08662       13.88169        3.85294
C         85.75460       14.61481        2.71973
O         85.10825       14.88519        1.72173
O         87.05688       14.95790        2.77366
H         87.69065       14.78675        5.60422
H         86.85889       12.90903        4.58926
H         84.21875       14.47386        4.20762
H         84.68604       12.93211        3.43641
N         85.45987       12.94533        7.40218
C         84.85726       12.12379        8.44503
C         83.77706       12.90892        9.18708
O         83.13709       12.34843       10.06590
C         85.97310       11.63733        9.39865
C         87.08541       10.90517        8.62058
C         88.24999       10.47270        9.51760
C         89.36961        9.84909        8.66698
N         90.51008        9.45607        9.49256
H         86.00008       13.76023        7.72323
H         84.36085       11.23249        8.00277
H         85.54519       10.96128       10.17103
H         86.41912       12.51884        9.91101
H         87.50104       11.59322        7.85288
H         86.65852       10.01687        8.10565
H         87.89147        9.74015       10.27282
H         88.65681       11.36348       10.04488
H         89.71327       10.58980        7.90943
H         88.97917        8.95709        8.12848
H         90.90264       10.29143        9.98465
H         90.21709        8.73606       10.19159
H         91.25166        9.05002        8.87669
N         83.50770       14.21063        8.86914
C         82.46788       15.01538        9.48451
C         81.09719       14.45679        9.14316
O         80.78950       14.28020        7.97212
C         82.57551       16.46843        8.97888
C         81.58228       17.35113        9.66777
O         81.63336       17.51878       11.00323
O         80.71679       17.91040        9.02042
H         84.06835       14.67740        8.15250
H         82.63447       15.03609       10.58503
H         82.41476       16.49640        7.87700
H         83.59270       16.86698        9.18751
N         80.20972       14.19350       10.13604
C         78.87340       13.66853        9.92183
C         77.99563       14.56328        9.07169
O         77.34440       14.05879        8.16806
H         80.49144       14.37882       11.11094
H         78.38480       13.57994       10.91627
H         78.92496       12.64940        9.48071
N         77.89484       15.89671        9.33077
C         76.90056       16.76497        8.69688
C         77.37305       17.44891        7.41630
O         76.60483       18.21489        6.85032
C         76.27178       17.69106        9.75595
C         77.27071       18.56525       10.51839
N         76.58883       19.27398       11.59688
O         77.87249       19.47993        9.65212
H         78.49550       16.29233       10.07003
H         76.04540       16.14546        8.34705
H         75.78052       17.02909       10.50311
H         75.48118       18.32536        9.29905
H         76.12776       18.57975       12.22851
H         77.30990       19.75446       12.17576
N         78.55460       17.12204        6.82530
C         78.92787       17.54820        5.48504
C         79.14434       19.03181        5.33708
O         78.59898       19.62335        4.41600
H         79.18565       16.45340        7.28770
H         78.16773       17.19734        4.75090
H         79.88904       17.05502        5.22274
N         79.99849       19.68002        6.16997
C         80.46445       21.04437        5.95523
C         80.04121       21.98095        7.07158
O         79.45199       21.55215        8.05110
C         82.00973       20.98065        5.88655
C         82.47579       20.18252        4.69605
C         82.33791       20.72299        3.40947
C         83.05089       18.90754        4.85096
C         82.77048       20.00729        2.29262
C         83.47101       18.18544        3.72754
C         83.33356       18.73786        2.44433
O         83.73643       18.06343        1.34999
H         80.40269       19.15480        6.95590
H         80.05124       21.46590        5.01271
H         82.36723       20.50358        6.82617
H         82.48001       21.98516        5.83595
H         81.90622       21.70661        3.27463
H         83.16191       18.46656        5.83465
H         82.66732       20.44113        1.30647
H         83.90258       17.20018        3.85368
H         84.12707       17.18217        1.40440
N         80.35711       23.30430        6.97172
C         80.14762       24.28553        8.03346
C         78.65829       24.50877        8.30235
O         78.25162       24.28782        9.43301
C         80.94069       25.60271        7.72992
C         82.46210       25.34871        7.47488
C         80.81501       26.63694        8.86605
C         83.23018       24.74439        8.65972
H         80.82909       23.60671        6.10830
H         80.59526       23.87953        8.96278
H         80.52032       26.05470        6.80364
H         82.94439       26.31496        7.21157
H         82.61450       24.68342        6.60298
H         79.78421       26.93728        9.04431
H         81.18105       26.23763        9.83127
H         81.38003       27.55836        8.60756
H         82.82823       23.74984        8.93317
H         84.29580       24.61404        8.38074
H         83.20244       25.40755        9.54734
N         77.77477       24.92443        7.34000
C         76.34063       25.08391        7.63314
C         76.06476       26.18588        8.64797
O         74.98685       26.19388        9.22562
C         75.51657       25.35717        6.37129
O         75.69204       24.31274        5.45599
H         78.12010       25.08228        6.38131
H         75.98720       24.12027        8.06798
H         75.84732       26.32262        5.92574
H         74.43789       25.42344        6.64483
H         75.27406       24.61814        4.60970
N         77.01143       27.12224        8.94010
C         76.91441       28.09821       10.01538
C         76.61222       27.37424       11.31150
O         75.59806       27.65050       11.94141
C         75.89687       29.19508        9.68158
H         77.87288       27.11771        8.39379
H         77.89972       28.60817       10.11669
H         74.87179       28.78583        9.57970
H         75.90093       29.96260       10.48670
H         76.18517       29.69421        8.73201
N         77.45241       26.39788       11.75732
C         77.14856       25.60632       12.94372
C         78.35464       24.85758       13.47851
O         79.38166       24.77549       12.81758
C         76.01089       24.62292       12.63458
H         78.32521       26.23120       11.23295
H         76.85338       26.30973       13.75305
H         76.31834       23.95769       11.80483
H         75.76073       24.00025       13.51825
H         75.09496       25.15391       12.30664
N         78.31487       24.37842       14.75735
C         79.43807       23.75697       15.45326
C         80.65041       24.68227       15.58684
O         81.66531       24.22714       16.09740
C         79.82027       22.39955       14.82189
C         78.63854       21.41660       14.84549
C         79.07506       20.03277       14.46256
O         79.57384       19.82132       13.37181
O         78.92109       19.01394       15.32984
H         77.44367       24.49961       15.29731
H         79.11806       23.52693       16.49453
H         80.63942       21.95970       15.43368
H         80.19574       22.52259       13.78480
H         77.84027       21.76514       14.15499
H         78.21863       21.36771       15.87368
N         80.62817       25.99138       15.19643
C         81.78834       26.84700       15.31139
H         82.61816       26.44097       14.69481
H         81.54288       27.86710       14.94497
H         82.10796       26.91682       16.37220
H         79.77455       26.42067       14.81836
Ca        79.88784       20.00560       10.60086
O         83.12679       20.74871        9.70007
H         84.03122       20.84821       10.09019
H         83.13080       21.35194        8.91595
O         82.51942       20.22391       12.87304
H         82.27081       19.70161       13.67656
H         83.41324       19.88037       12.62229
O         81.34616       22.75957       11.31056
H         81.69826       23.68455       11.32463
H         80.36694       22.86987       11.22063
O         77.77194       22.03970       11.13755
H         76.81529       21.85049       10.97067
H         78.18375       21.96673       10.24323

Ca 1.0



