%chk=apoCaM-CA-Ng.loop4.water3.frame69.chk
%nprocshared=20
%mem=10GB
%nosave
#b3lyp/svp scf=(tight,noincore,xqc) Test 
#IOP(5/87=12) Density=Current Pop=(MK,readradii) iop(6/33=2) iop(6/42=6)

apoCaM-CA-Ng.loop4.water3.frame69 

   -3  1 
C         39.85749       66.80960       65.57609
C         39.37029       68.00958       64.82335
O         39.87939       69.09279       65.05836
H         40.66223       67.09574       66.28859
H         39.01877       66.36202       66.14782
H         40.26421       66.06189       64.86420
N         38.39558       67.88165       63.87609
C         37.86477       68.98763       63.08241
C         38.97814       69.66970       62.30385
O         39.27023       70.82694       62.53971
C         36.91104       69.89993       63.90374
C         37.46213       70.58538       65.12195
O         38.31657       71.44614       65.02092
O         36.96190       70.29242       66.33771
H         38.02829       66.93772       63.68144
H         37.18480       68.56261       62.30958
H         36.07198       69.25441       64.24440
H         36.47916       70.67246       63.23040
N         39.62631       68.95451       61.33725
C         40.72515       69.38409       60.46670
C         40.31216       70.49737       59.49859
O         40.17901       70.19769       58.31940
C         42.04272       69.65077       61.24628
C         43.23853       69.94556       60.29770
C         42.38037       68.46134       62.16969
C         43.54518       68.85292       59.26223
H         39.30793       67.98231       61.19638
H         40.92807       68.49429       59.83050
H         41.90828       70.53792       61.90132
H         44.14870       70.09121       60.91640
H         43.04799       70.89173       59.74852
H         41.57762       68.30647       62.91866
H         42.49412       67.51800       61.59646
H         43.32068       68.65761       62.72803
H         43.76920       67.88303       59.74943
H         42.70709       68.71755       58.55063
H         44.42848       69.15163       58.66156
N         40.06741       71.78256       59.89488
C         39.48849       72.77399       58.99265
C         40.51563       73.40444       58.04989
O         40.32562       73.24782       56.85172
C         38.61929       73.80186       59.75519
C         37.46415       73.13276       60.45645
O         37.31283       73.25825       61.78740
O         36.64591       72.48837       59.81925
H         40.19530       72.04790       60.87669
H         38.74772       72.25196       58.34214
H         38.19632       74.52864       59.02818
H         39.19904       74.36140       60.50786
N         41.60836       74.13581       58.43012
C         42.01426       74.38647       59.80524
C         43.26124       75.26572       59.91864
O         43.77653       75.69464       58.89598
H         42.18643       74.51563       57.66524
H         42.21442       73.40536       60.27244
H         41.20608       74.91224       60.31732
N         43.85199       75.59321       61.11197
C         43.43256       75.18822       62.45326
C         43.34980       73.67500       62.55614
O         42.26824       73.15932       62.79473
C         42.14221       75.91060       62.90245
C         42.30147       77.40427       62.84922
O         41.55605       78.07676       62.15519
O         43.26166       78.00959       63.57478
H         44.70863       76.16813       61.06592
H         44.20176       75.52342       63.18558
H         41.92180       75.62772       63.95508
H         41.27178       75.61350       62.29575
N         44.43328       72.86378       62.38723
C         45.79615       73.32430       62.17652
C         46.39117       72.77427       60.91061
O         45.74732       72.02446       60.19056
H         44.28560       71.84655       62.45337
H         46.42375       72.98517       63.02579
H         45.87101       74.42444       62.14188
N         47.65870       73.13475       60.57752
C         48.33308       72.64966       59.37995
C         48.78783       71.20113       59.52850
O         49.31646       70.66768       58.56144
C         49.53705       73.55998       59.04777
C         49.07239       75.00379       58.76111
C         50.19328       75.94775       58.40952
N         49.91002       77.24175       58.13296
O         51.35246       75.56080       58.37337
H         48.14715       73.80444       61.19226
H         47.63020       72.71513       58.51916
H         50.04977       73.17404       58.13897
H         50.26099       73.55063       59.89299
H         48.55443       75.42134       59.64953
H         48.35381       74.98795       57.91299
H         48.93734       77.58300       58.16126
H         50.66075       77.90493       57.89133
N         48.63524       70.50267       60.69535
C         49.08663       69.12472       60.87847
C         50.20336       69.02991       61.91250
O         50.73970       67.94461       62.08080
C         47.89526       68.18641       61.20336
C         46.88967       68.19772       60.04648
C         47.18567       68.54815       62.51561
H         48.20017       70.96265       61.50588
H         49.54135       68.74727       59.93545
H         48.28382       67.14836       61.29978
H         47.38546       67.89544       59.09948
H         46.06674       67.48273       60.24985
H         46.46188       69.21376       59.91286
H         47.89817       68.51488       63.36561
H         46.73588       69.55713       62.45290
H         46.36765       67.82522       62.72075
N         50.66333       70.13550       62.57349
C         51.87939       70.14254       63.37198
C         51.66762       70.63951       64.79797
O         52.09717       69.93343       65.70184
C         52.99618       70.89355       62.59815
C         52.73923       72.30380       62.10250
N         53.67221       72.91420       61.33772
O         51.70234       72.89484       62.34865
H         50.20596       71.03953       62.42372
H         52.28832       69.11009       63.46912
H         53.19565       70.29078       61.68421
H         53.92498       70.88810       63.20911
H         54.55190       72.43479       61.09757
H         53.50923       73.86535       60.97497
N         51.05573       71.82603       65.09798
C         51.01846       72.37099       66.45502
C         49.59042       72.52551       66.95710
O         48.72672       72.88361       66.16856
C         51.67982       73.77242       66.50567
C         52.86528       73.98220       65.58301
C         54.00971       73.16651       65.61697
C         52.81357       75.04320       64.65803
C         55.07376       73.41071       64.73396
C         53.87522       75.28943       63.79053
C         55.01045       74.47327       63.82248
O         56.03981       74.70113       62.98140
H         50.63276       72.38812       64.35082
H         51.59412       71.71855       67.14885
H         51.96456       73.99021       67.55871
H         50.91572       74.53047       66.22459
H         54.07680       72.34109       66.31357
H         51.94870       75.69315       64.60876
H         55.94991       72.77518       64.75548
H         53.80997       76.11537       63.09282
H         56.02614       75.42720       62.33998
N         49.30485       72.41701       68.28988
C         48.01620       72.76820       68.89755
C         46.84753       71.88007       68.47941
O         45.74100       72.15567       68.92345
C         47.67066       74.26146       68.66055
C         48.73700       75.20723       69.23050
C         48.32251       76.64039       69.05126
O         47.18701       77.09182       69.61930
O         49.01532       77.40501       68.39947
H         50.06578       72.14477       68.93125
H         48.10812       72.63941       69.99965
H         46.71036       74.48644       69.17542
H         47.52526       74.47068       67.58028
H         49.70853       75.03148       68.72009
H         48.86805       75.01410       70.31713
N         47.00135       70.77630       67.69400
C         45.88904       69.90429       67.32053
C         46.00304       68.54366       67.98654
O         45.12321       67.72086       67.76702
C         45.86116       69.74197       65.78968
C         45.60211       71.06083       65.05749
C         44.20117       71.55408       65.25990
O         43.99376       72.65314       65.74843
O         43.16755       70.80420       64.83508
H         47.94105       70.50803       67.36972
H         44.91462       70.32443       67.65483
H         45.08128       69.00978       65.48200
H         46.84576       69.34148       65.46593
H         45.73032       70.88328       63.97501
H         46.34108       71.82911       65.36712
N         47.02596       68.22811       68.83130
C         47.10498       66.93894       69.48006
H         48.00989       66.89386       70.12193
H         46.20833       66.78238       70.11715
H         47.16523       66.13428       68.71717
H         47.77064       68.90808       69.03880
Ca        41.09397       71.66405       64.86926
O         39.58776       74.26682       63.81232
H         38.89535       74.96980       63.88582
H         39.08890       73.44427       63.58803
O         40.56295       73.81956       66.75581
H         39.62913       74.09329       66.93751
H         41.01198       74.64637       66.44768
O         41.26226       70.45316       67.53236
H         41.38783       71.20120       68.16848
H         40.37189       70.08174       67.75513

Ca 1.0



