%chk=apoCaM-CA-Ng.loop3.water5.frame264.chk
%nprocshared=20
%mem=10GB
%nosave
#b3lyp/svp scf=(tight,noincore,xqc) Test 
#IOP(5/87=12) Density=Current Pop=(MK,readradii) iop(6/33=2) iop(6/42=6)

apoCaM-CA-Ng.loop3.water5.frame264 

   0  1 
C         54.24364       19.73592       -0.19033
C         55.09970       18.55386       -0.53745
O         56.16041       18.75694       -1.10742
H         53.30285       19.42382        0.30847
H         54.80108       20.41659        0.48687
H         53.98421       20.28560       -1.12028
N         54.70119       17.28282       -0.22495
C         55.45706       16.07131       -0.55373
C         55.48836       15.78862       -2.05728
O         56.19336       14.87324       -2.46192
C         56.88352       16.12391        0.05029
C         56.84548       16.40219        1.52796
O         57.39860       17.39219        1.98057
O         56.19791       15.56362        2.35903
H         53.81479       17.15733        0.28622
H         54.94326       15.20035       -0.09006
H         57.50104       16.89569       -0.45427
H         57.39255       15.14942       -0.10996
N         54.74073       16.51443       -2.94154
C         54.79022       16.34915       -4.39302
C         55.35820       17.59308       -5.06030
O         55.58622       17.56221       -6.26157
C         53.36582       16.14973       -4.94494
C         52.66817       14.88856       -4.43301
C         51.21007       14.88238       -4.91389
C         50.48009       13.60457       -4.49305
N         49.07470       13.65558       -4.89658
H         54.10382       17.23802       -2.58025
H         55.44584       15.49414       -4.66978
H         53.39253       16.10215       -6.05686
H         52.76353       17.04116       -4.65428
H         52.67394       14.86917       -3.32166
H         53.21081       13.99609       -4.81375
H         51.17548       14.96662       -6.02263
H         50.68770       15.76284       -4.47631
H         50.53781       13.48344       -3.38884
H         50.97298       12.72994       -4.97273
H         48.59123       14.44262       -4.40493
H         48.99725       13.78845       -5.93126
H         48.60930       12.75742       -4.63348
N         55.54862       18.74769       -4.36126
C         55.99606       19.98582       -4.96976
C         57.45346       19.87891       -5.38938
O         58.12641       18.92344       -5.02365
C         55.75603       21.12141       -3.94649
C         56.04566       22.49409       -4.45083
O         56.92588       23.26352       -3.79283
O         55.45385       22.93818       -5.42139
H         55.29810       18.78483       -3.37136
H         55.35841       20.17733       -5.86124
H         56.35871       20.92556       -3.03429
H         54.68531       21.10588       -3.64707
N         58.00372       20.83047       -6.18739
C         59.39463       20.82031       -6.59301
C         60.30041       21.04041       -5.40796
O         61.22220       20.26466       -5.20225
H         57.41215       21.59721       -6.53823
H         59.56282       21.66204       -7.29613
H         59.64028       19.88073       -7.13426
N         60.09176       22.11541       -4.59766
C         60.97687       22.50636       -3.50393
C         60.31604       22.43342       -2.12203
O         60.94563       22.83228       -1.15198
C         61.53264       23.91756       -3.81134
C         60.53614       25.10871       -3.77876
N         60.93368       26.08280       -2.76592
O         59.22181       24.70240       -3.52866
H         59.27823       22.70922       -4.80516
H         61.85625       21.82686       -3.46728
H         61.99075       23.89798       -4.82418
H         62.37122       24.11706       -3.10915
H         61.92025       26.38014       -2.93715
H         60.34942       26.93651       -2.88962
N         59.07254       21.89988       -1.94778
C         58.38886       21.79201       -0.66166
C         57.93554       23.12807       -0.10944
O         58.30570       24.16274       -0.64241
H         58.58692       21.50241       -2.76184
H         59.01114       21.24339        0.07805
H         57.46337       21.20110       -0.82805
N         57.06114       23.16662        0.94283
C         56.47968       24.40835        1.46661
C         55.71774       25.17900        0.39848
O         55.55391       24.69930       -0.71393
C         55.52473       24.10832        2.65091
C         56.27275       23.76992        3.91308
C         57.03032       24.76898        4.54940
C         56.20053       22.49184        4.48759
C         57.70535       24.49592        5.73973
C         56.88643       22.21716        5.67697
C         57.63759       23.21684        6.30772
O         58.28433       22.94041        7.45795
H         56.77243       22.26888        1.36263
H         57.30365       25.07669        1.79992
H         54.82403       23.29874        2.34707
H         54.89632       24.98877        2.90576
H         57.08369       25.76702        4.13071
H         55.61815       21.70993        4.01683
H         58.27560       25.28112        6.22055
H         56.82987       21.22777        6.11235
H         58.80732       23.60755        7.92581
N         55.27723       26.43873        0.68379
C         54.67488       27.33527       -0.29475
C         55.61022       28.51582       -0.47207
O         55.98929       28.79568       -1.59511
C         53.26205       27.82801        0.12978
C         52.33891       26.64062        0.49615
C         52.64173       28.65730       -1.02398
C         50.96376       27.08140        1.00801
H         55.43952       26.80441        1.63318
H         54.55834       26.81624       -1.27327
H         53.36989       28.47145        1.03116
H         52.81260       26.05438        1.31197
H         52.20695       25.97180       -0.38235
H         53.29981       29.48622       -1.34415
H         52.47005       28.01492       -1.91480
H         51.68227       29.12202       -0.72458
H         51.07715       27.74791        1.88970
H         50.38343       27.60774        0.22361
H         50.37722       26.18931        1.31000
N         56.05298       29.24935        0.59244
C         56.96022       30.37624        0.41130
C         56.26640       31.54873       -0.26523
O         56.96177       32.45241       -0.70611
C         57.56231       30.82330        1.75062
O         58.29837       29.76947        2.31841
H         55.77089       28.98315        1.54687
H         57.80317       30.03566       -0.23285
H         56.75116       31.17082        2.43396
H         58.25361       31.67902        1.59540
H         57.83420       29.49190        3.15036
N         54.90247       31.60934       -0.37448
C         54.17134       32.68742       -1.02940
C         54.43311       32.75986       -2.52895
O         53.99434       33.72264       -3.14345
C         54.41858       34.02574       -0.31981
H         54.33104       30.86845        0.05059
H         53.08105       32.48915       -0.92105
H         54.15016       33.92795        0.75412
H         55.47103       34.35881       -0.40115
H         53.77053       34.81314       -0.76069
N         55.03402       31.73568       -3.20746
C         55.19731       31.72851       -4.65624
C         54.24048       30.73389       -5.28242
O         53.58447       29.99153       -4.56453
C         56.64833       31.38069       -5.01252
H         55.31467       30.88709       -2.70129
H         54.95076       32.72630       -5.07770
H         56.91072       30.37251       -4.62199
H         56.79845       31.37693       -6.11268
H         57.34316       32.12100       -4.56392
N         54.07121       30.70947       -6.63798
C         53.20274       29.77394       -7.35528
C         51.72108       29.90350       -6.98917
O         50.93204       29.14857       -7.54140
C         53.71911       28.31843       -7.18327
C         55.18449       28.20518       -7.65027
C         55.81714       26.86713       -7.38446
O         55.90319       26.43597       -6.11310
O         56.36256       26.24774       -8.28298
H         54.60646       31.38205       -7.20813
H         53.27176       30.00745       -8.44147
H         53.09618       27.61967       -7.78379
H         53.63245       28.01652       -6.12119
H         55.79937       28.93612       -7.08506
H         55.25235       28.45785       -8.73076
N         51.24863       30.83305       -6.10493
C         49.84434       30.92876       -5.76701
H         49.49349       29.97246       -5.32376
H         49.68731       31.73920       -5.02246
H         49.24893       31.16098       -6.67480
H         51.87745       31.50769       -5.65226
Ca        57.75099       25.61396       -5.05518
O         58.03542       27.14302       -2.18137
H         57.80286       26.21742       -1.92738
H         58.39158       27.54899       -1.35254
O         54.21354       25.07211       -3.74984
H         53.49826       25.20400       -3.07941
H         55.04144       24.99404       -3.21401
O         55.60656       27.99117       -4.05074
H         56.00628       27.18221       -3.64839
H         54.63701       27.80438       -4.02233
O         58.57101       28.28919       -6.25281
H         58.98604       27.50447       -6.69229
H         58.81631       28.19872       -5.29761
O         58.72608       24.04777       -7.19574
H         58.05738       24.17437       -7.91362
H         59.53115       24.53040       -7.50892

Ca 1.0



