%chk=apoCaM-CA-Ng.loop3.water4.frame205.chk
%nprocshared=20
%mem=10GB
%nosave
#b3lyp/svp scf=(tight,noincore,xqc) Test 
#IOP(5/87=12) Density=Current Pop=(MK,readradii) iop(6/33=2) iop(6/42=6)

apoCaM-CA-Ng.loop3.water4.frame205 

   0  1 
C         22.40546       45.10696       28.88543
C         22.13753       45.82506       27.59715
O         22.73023       46.86795       27.37086
H         23.15177       45.66000       29.49666
H         21.46259       45.02876       29.46685
H         22.79522       44.08960       28.67681
N         21.24267       45.31314       26.70015
C         20.86933       45.94638       25.43326
C         20.05324       47.22475       25.62600
O         19.75807       47.87410       24.63234
C         22.10192       46.19560       24.52511
C         22.87433       44.94464       24.19572
O         23.83669       45.01724       23.44987
O         22.51554       43.74407       24.69168
H         20.79695       44.41015       26.92396
H         20.19992       45.25187       24.87827
H         22.79178       46.93408       24.98133
H         21.75210       46.62768       23.56265
N         19.61163       47.62743       26.85472
C         18.84754       48.85240       27.08313
C         19.60905       49.79986       28.01012
O         19.06714       50.83278       28.37994
C         17.47418       48.50346       27.69338
C         16.68769       47.50271       26.82463
C         15.27490       47.21997       27.36116
C         14.32509       48.41820       27.18593
N         12.98457       48.10089       27.67565
H         19.80828       47.04795       27.68299
H         18.66202       49.39375       26.12963
H         16.90596       49.45027       27.79510
H         17.60775       48.06392       28.70709
H         17.24751       46.54193       26.81905
H         16.61299       47.86374       25.77585
H         15.33212       46.91474       28.42907
H         14.85342       46.36975       26.78156
H         14.26578       48.67538       26.10428
H         14.70046       49.30629       27.73447
H         12.59992       47.26973       27.17066
H         13.01739       47.90790       28.70300
H         12.35687       48.91977       27.50505
N         20.87680       49.50872       28.42148
C         21.66071       50.30806       29.35070
C         21.85822       51.71015       28.79431
O         22.38125       51.84392       27.69692
C         22.99534       49.56545       29.61299
C         23.79514       50.17864       30.71157
O         23.99527       49.52544       31.86439
O         24.26969       51.28612       30.58125
H         21.32058       48.65799       28.06773
H         21.10961       50.35354       30.31618
H         23.60350       49.50494       28.68407
H         22.75137       48.52677       29.92889
N         21.40717       52.80268       29.48059
C         21.43285       54.15166       28.92724
C         22.81823       54.71832       28.67506
O         22.90450       55.76128       28.04335
H         20.95865       52.66761       30.39940
H         20.90271       54.84886       29.61353
H         20.87331       54.13269       27.96873
N         23.93591       54.13346       29.18373
C         25.28861       54.64584       29.00227
C         26.25379       53.56115       28.52435
O         27.43538       53.63881       28.83517
C         25.73590       55.35569       30.29647
C         25.54059       54.49235       31.51361
N         24.60758       54.83054       32.43224
O         26.19637       53.47189       31.65799
H         23.81560       53.33324       29.79999
H         25.30443       55.42713       28.21107
H         25.09380       56.25717       30.40283
H         26.78576       55.71410       30.23241
H         24.02680       55.67484       32.32187
H         24.44260       54.23180       33.24483
N         25.85221       52.61262       27.62807
C         26.78901       51.75947       26.91092
C         27.57713       50.75483       27.72821
O         28.53334       50.23114       27.17702
H         24.86278       52.57522       27.34539
H         27.51336       52.42952       26.39896
H         26.25432       51.19297       26.11782
N         27.22783       50.37437       28.99270
C         28.00457       49.39153       29.75377
C         28.42780       49.95010       31.09299
O         27.95531       50.99851       31.50201
C         27.20993       48.08313       29.98170
C         27.03674       47.28565       28.71158
C         27.72146       46.06540       28.56047
C         26.20947       47.73673       27.67052
C         27.59664       45.32324       27.38548
C         26.08283       46.98967       26.49548
C         26.78268       45.78278       26.34810
O         26.68584       45.05896       25.21628
H         26.37925       50.76501       29.41735
H         28.94398       49.13419       29.21766
H         26.22738       48.28072       30.46105
H         27.78688       47.45263       30.69312
H         28.36687       45.69104       29.34608
H         25.66142       48.66283       27.76426
H         28.14009       44.39252       27.27952
H         25.44410       47.35190       25.70020
H         26.15657       45.35435       24.46387
N         29.34449       49.25694       31.83452
C         29.76045       49.66838       33.16703
C         30.36791       51.05857       33.08673
O         29.85082       51.97524       33.70773
C         30.78162       48.66192       33.81702
C         30.37023       47.16193       33.76149
C         31.07313       49.06014       35.27754
C         29.03262       46.82988       34.41381
H         29.74700       48.40749       31.42256
H         28.85523       49.68645       33.80997
H         31.74184       48.71912       33.26024
H         31.16229       46.55521       34.25315
H         30.33063       46.81009       32.71187
H         30.15290       49.03077       35.89721
H         31.82824       48.37801       35.72343
H         31.48124       50.08314       35.33167
H         28.83813       45.74066       34.31700
H         29.02611       47.08767       35.49145
H         28.22586       47.36989       33.89148
N         31.47474       51.28394       32.32639
C         32.16447       52.56853       32.27547
C         32.63503       52.96016       33.66473
O         32.41028       54.09390       34.05972
C         33.33457       52.51861       31.28270
O         34.27161       51.53933       31.65037
H         31.85887       50.49538       31.78275
H         31.46847       53.35200       31.89707
H         33.83985       53.50711       31.23715
H         32.91624       52.31739       30.26643
H         34.36899       50.92035       30.88014
N         33.22120       52.03145       34.48166
C         33.52707       52.20782       35.90177
C         32.57107       53.16142       36.61134
O         33.01476       54.09355       37.26934
C         35.00318       52.57228       36.07136
H         33.34643       51.07715       34.11136
H         33.37952       51.21985       36.39257
H         35.63846       51.79553       35.59379
H         35.21566       53.55228       35.59454
H         35.26736       52.62238       37.14932
N         31.22389       52.99593       36.47232
C         30.23721       53.90021       37.04710
C         29.01865       53.14372       37.54747
O         28.90163       51.94729       37.32177
C         29.80937       54.92338       35.98946
H         30.89285       52.24982       35.85037
H         30.68740       54.44986       37.90321
H         29.07640       55.64517       36.40730
H         30.69338       55.49968       35.64322
H         29.35132       54.41312       35.11502
N         28.07650       53.80490       38.27719
C         26.86019       53.21559       38.83032
C         27.16242       51.90672       39.54781
O         26.53970       50.89265       39.25430
C         25.76752       53.01381       37.75734
C         25.52876       54.24036       36.86931
C         24.33945       53.99769       35.98714
O         24.29849       53.01119       35.27037
O         23.29953       54.85301       36.00178
H         28.25595       54.79411       38.51012
H         26.45192       53.94827       39.56177
H         24.82262       52.75121       38.28457
H         26.03398       52.16434       37.09809
H         26.42682       54.41477       36.23570
H         25.34553       55.14646       37.48469
N         28.16269       51.83867       40.46317
C         28.53245       50.58299       41.07885
H         29.39927       50.73082       41.75456
H         27.67743       50.17713       41.65904
H         28.82067       49.85086       40.29152
H         28.70303       52.68557       40.69422
Ca        25.01390       50.79413       33.41314
O         27.20890       51.74379       34.99909
H         27.37373       51.70480       34.02608
H         27.50784       50.86541       35.34463
O         25.94925       48.22845       33.83038
H         25.39753       47.65051       34.41298
H         25.95171       47.77462       32.95059
O         23.63338       49.79512       35.79786
H         23.15749       49.22526       35.14236
H         23.00146       50.53257       35.99006
O         22.38924       52.29448       32.77014
H         21.71141       51.57325       32.79521
H         21.95913       53.05975       33.22712

Ca 1.0



