%chk=apoCaM-CA-Ng.loop3.water3.frame758.chk
%nprocshared=20
%mem=10GB
%nosave
#b3lyp/svp scf=(tight,noincore,xqc) Test 
#IOP(5/87=12) Density=Current Pop=(MK,readradii) iop(6/33=2) iop(6/42=6)

apoCaM-CA-Ng.loop3.water3.frame758 

   0  1 
C         98.73026       18.27527        8.93648
C        100.13060       17.79037        9.15637
O        100.83618       17.51246        8.19743
H         98.01359       17.60329        9.45254
H         98.63334       19.29908        9.35938
H         98.48768       18.31299        7.85457
N        100.60932       17.70092       10.42414
C        101.99232       17.35146       10.73869
C        102.30185       15.91138       10.31614
O        101.37350       15.14320       10.10332
C        102.19640       17.63920       12.25381
C        103.58835       17.82227       12.77842
O        103.73483       18.27575       13.90130
O        104.66834       17.63858       12.01467
H         99.96834       17.96627       11.18999
H        102.63042       18.04593       10.15961
H        101.63365       16.90439       12.86495
H        101.74409       18.64007       12.43639
N        103.58764       15.48134       10.16241
C        103.96267       14.10889        9.83941
C        104.60056       13.50513       11.07584
O        104.06219       12.53787       11.59721
C        104.90528       14.05194        8.61173
C        104.17700       14.34078        7.28452
C        105.12380       14.16829        6.08076
C        104.36225       14.21339        4.74503
N        105.26680       13.99768        3.61343
H        104.35358       16.14424       10.31546
H        103.06773       13.48695        9.61127
H        105.30646       13.01715        8.53735
H        105.76493       14.74391        8.74537
H        103.74097       15.36374        7.28067
H        103.35111       13.60244        7.18771
H        105.62102       13.17606        6.14831
H        105.90614       14.95887        6.10323
H        103.84848       15.19256        4.62793
H        103.59110       13.41018        4.74144
H        104.71220       13.98403        2.72660
H        105.97083       14.76887        3.56108
H        105.75780       13.07874        3.71105
N        105.71811       14.04942       11.63771
C        106.25441       13.59422       12.92058
C        105.40400       14.05889       14.11121
O        105.71488       13.67420       15.23001
C        107.74472       13.97404       13.07467
C        108.05005       15.43400       12.88093
O        107.46876       16.36858       13.64724
O        108.84532       15.77767       12.02166
H        106.16514       14.84526       11.16415
H        106.24439       12.48077       12.93421
H        108.32369       13.39912       12.31790
H        108.10077       13.65106       14.07685
N        104.28919       14.83020       13.95050
C        103.36726       15.16007       15.02606
C        103.83996       16.18307       16.04391
O        103.01929       16.50871       16.89071
H        104.00245       15.12030       13.00794
H        103.05150       14.22690       15.54161
H        102.45360       15.59230       14.56754
N        105.09318       16.74056       16.05852
C        105.48211       17.74731       17.05559
C        106.14740       18.97420       16.43990
O        106.48027       18.96400       15.26667
C        106.41118       17.12908       18.13212
C        107.89120       17.15371       17.79198
N        108.39697       16.50599       16.71986
O        108.64488       17.80174       18.50410
H        105.78309       16.42322       15.37377
H        104.56635       18.08440       17.58779
H        106.06775       16.10273       18.38532
H        106.29478       17.74114       19.05388
H        107.79856       15.94620       16.10442
H        109.40317       16.57263       16.50331
N        106.43778       20.04724       17.22712
C        107.25593       21.18209       16.82115
C        106.75818       21.88905       15.58527
O        105.58021       22.21193       15.51645
H        106.10343       20.04023       18.20288
H        108.30289       20.84486       16.66397
H        107.26492       21.91245       17.65901
N        107.63350       22.22948       14.58897
C        107.20496       22.94981       13.39893
C        106.33693       22.01073       12.51721
O        107.19517       20.99546       12.06765
C        108.40000       23.47863       12.54415
C        109.41602       24.35632       13.23675
C        110.78484       24.05395       13.10613
C        109.03721       25.50484       13.95155
C        111.75434       24.88710       13.66642
C        110.01216       26.33103       14.52592
C        111.37164       26.03057       14.37824
O        112.29952       26.84990       14.91332
H        108.63557       22.01976       14.71011
H        106.61514       23.83415       13.72777
H        107.97689       24.08655       11.71612
H        108.93906       22.62708       12.07688
H        111.10884       23.18647       12.54394
H        107.99336       25.76717       14.06017
H        112.80261       24.64740       13.53579
H        109.71201       27.21464       15.07455
H        113.24870       26.68720       14.81130
N        105.80364       22.75731       11.36179
C        104.67591       22.16860       10.60532
C        105.09753       20.92567        9.83645
O        105.29867       19.88619       10.42953
C        103.38575       21.92236       11.45045
C        102.23588       21.30134       10.60289
C        102.89850       23.20964       12.13932
C        101.80440       22.11312        9.37520
H        105.52774       23.72234       11.65667
H        104.41682       22.94297        9.85203
H        103.61877       21.18826       12.25372
H        101.34923       21.14300       11.25418
H        102.55059       20.30412       10.24274
H        103.65406       23.58745       12.85729
H        102.68571       24.00682       11.39691
H        101.97447       23.00554       12.72076
H        102.63641       22.21714        8.64960
H        100.98215       21.57787        8.85503
H        101.43840       23.11880        9.66174
N        105.23635       20.97276        8.48594
C        105.65694       19.81735        7.68525
C        106.05030       20.14158        6.24093
O        106.57245       19.24419        5.59063
C        104.58372       18.70999        7.70015
O        103.38844       19.16801        7.12470
H        105.08233       21.88989        8.07189
H        106.58788       19.42488        8.14673
H        104.40731       18.33521        8.73042
H        104.93257       17.82258        7.12996
H        102.80465       19.46972        7.86870
N        105.88019       21.36781        5.66389
C        106.37054       21.69969        4.33280
C        107.89961       21.65631        4.30327
O        108.48985       21.59150        5.37398
C        105.90167       23.12585        4.01000
H        105.39322       22.11784        6.15774
H        105.92413       20.98625        3.61574
H        106.22832       23.45639        3.02883
H        104.79268       23.17931        4.03834
H        106.31116       23.84352        4.75542
N        108.65567       21.74111        3.16582
C        108.18318       21.68703        1.78037
C        109.31485       22.11464        0.84988
O        110.38012       21.51826        0.94016
C        107.75838       20.25794        1.41395
H        109.67612       21.80754        3.31367
H        107.31901       22.33872        1.63054
H        108.60884       19.55310        1.53188
H        106.92716       19.89452        2.04406
H        107.41474       20.22981        0.35732
N        109.21241       23.10813       -0.08518
C        108.00521       23.85884       -0.42473
C        107.52763       24.73042        0.71830
O        106.35512       24.65694        1.05338
C        108.26176       24.74579       -1.66351
C        106.95861       25.36126       -2.20087
C        107.22864       26.23801       -3.38677
O        107.99661       27.33606       -3.25152
O        106.74129       25.97151       -4.47360
H        110.05855       23.29522       -0.64744
H        107.21376       23.12963       -0.71185
H        108.69494       24.11827       -2.47364
H        108.99696       25.54204       -1.41137
H        106.45994       25.97664       -1.42305
H        106.26848       24.53745       -2.49208
N        108.37198       25.60369        1.33557
C        107.96878       26.46228        2.43222
H        106.90112       26.32886        2.70785
H        108.58745       26.23245        3.32501
H        108.12722       27.52319        2.14770
H        109.35341       25.65905        1.02526
Ca       106.41028       18.92555       12.53122
O        109.35131       19.21100       13.44991
H        109.68578       20.11412       13.67809
H        109.57281       18.65653       14.23955
O        106.94612       17.15014        9.64112
H        107.06183       17.10343        8.65975
H        107.46793       16.38159        9.97669
O        108.73346       19.69203       10.06880
H        109.02523       19.21639        9.25177
H        108.31158       20.52293        9.73353

Ca 1.0



