%chk=apoCaM-CA-Ng.loop2.water3.frame30.chk
%nprocshared=20
%mem=10GB
%nosave
#b3lyp/svp scf=(tight,noincore,xqc) Test 
#IOP(5/87=12) Density=Current Pop=(MK,readradii) iop(6/33=2) iop(6/42=6)

apoCaM-CA-Ng.loop2.water3.frame30 

   -2  1 
C         75.22914       36.10184       35.70285
C         75.30040       34.72307       36.28626
O         76.32831       34.35868       36.83993
H         74.40989       36.67317       36.18538
H         76.18741       36.64425       35.85111
H         75.03053       36.02784       34.61218
N         74.22611       33.89132       36.19447
C         74.24678       32.51465       36.67230
C         75.22587       31.70317       35.84442
O         76.10605       31.07990       36.42023
C         72.83909       31.89409       36.60393
C         72.81408       30.52904       37.23872
O         73.14860       30.38217       38.53616
O         72.48337       29.55168       36.58754
H         73.36360       34.25532       35.75989
H         74.54735       32.51363       37.74566
H         72.49361       31.83936       35.54854
H         72.13143       32.53826       37.16911
N         75.15658       31.71289       34.47417
C         76.08967       31.00192       33.60027
C         77.53713       31.43630       33.81851
O         78.43388       30.74219       33.35978
C         75.92004       29.48576       33.77794
H         74.42248       32.27720       34.02070
H         75.83624       31.21420       32.53802
H         76.18063       29.15483       34.80302
H         74.86692       29.20367       33.56378
H         76.56811       28.94125       33.05734
N         77.83922       32.56878       34.52266
C         79.18059       32.97028       34.90993
C         79.75956       31.87655       35.80208
O         80.72980       31.23171       35.42869
C         80.04422       33.32327       33.66904
C         81.29832       34.00952       34.12148
O         82.38692       33.47770       33.97517
O         81.19694       35.16455       34.80777
H         77.07993       33.17778       34.84116
H         79.09188       33.90113       35.51645
H         79.49738       34.03178       33.01126
H         80.28145       32.41070       33.08254
N         79.15884       31.59236       36.99641
C         79.50973       30.44736       37.82698
C         80.19863       30.81160       39.12577
O         80.48730       29.90277       39.89168
H         78.38220       32.19103       37.31740
H         80.19661       29.76141       37.28714
H         78.57828       29.87811       38.03787
N         80.57217       32.08944       39.41488
C         81.38928       32.42434       40.57956
C         80.60269       32.29436       41.85691
O         79.62036       33.00562       42.02208
C         81.92806       33.87643       40.48815
C         83.00167       34.06306       39.39863
N         84.22005       33.33670       39.73080
O         82.52843       33.59433       38.18062
H         80.33702       32.83551       38.74594
H         82.27107       31.74697       40.61873
H         82.39835       34.16276       41.45519
H         81.08035       34.57620       40.31566
H         84.60778       33.71506       40.62324
H         84.92076       33.52730       38.97945
N         81.01769       31.45099       42.84636
C         80.39404       31.46522       44.15561
C         80.67890       32.78157       44.85363
O         81.50356       33.55530       44.38444
H         81.81893       30.82084       42.68903
H         80.79405       30.64497       44.79095
H         79.30033       31.30761       44.03301
N         80.00259       33.10952       45.98470
C         80.20452       34.36501       46.70726
C         80.02077       35.57361       45.79026
O         80.87582       36.44825       45.78193
C         79.23871       34.43230       47.91846
C         79.50571       35.65978       48.79590
O         77.90457       34.44592       47.47624
H         79.29640       32.44090       46.33110
H         81.24257       34.37897       47.11061
H         79.42194       33.52218       48.53793
H         77.34825       34.07724       48.21060
H         80.55089       35.63856       49.17166
H         79.34308       36.59965       48.22764
H         78.81892       35.65337       49.66821
N         78.92516       35.66820       44.98669
C         78.61302       36.81169       44.11883
C         79.71881       37.12414       43.10663
O         80.71088       36.41187       43.04442
C         77.24497       36.57854       43.38576
C         77.30352       35.34476       42.43819
C         76.09596       36.49056       44.40885
C         76.02804       35.12435       41.62579
H         78.26944       34.87722       45.01916
H         78.51492       37.71397       44.76182
H         77.01628       37.46780       42.76407
H         77.50848       34.41458       43.00566
H         78.13032       35.48949       41.71008
H         76.18133       35.59988       45.06256
H         76.09351       37.39978       45.04716
H         75.11315       36.45401       43.89830
H         75.16994       34.88487       42.28580
H         75.79491       36.02369       41.01830
H         76.17467       34.26088       40.94226
N         79.57328       38.18004       42.24670
C         80.52932       38.50432       41.19358
C         80.84293       40.01907       41.13686
O         81.57510       40.43462       40.24990
C         79.93492       37.95186       39.88081
C         80.91702       37.79956       38.75124
O         80.53507       37.31468       37.69872
O         82.21379       38.13746       38.88934
H         78.69554       38.71717       42.26523
H         81.47809       37.95137       41.36922
H         79.06224       38.56389       39.57182
H         79.56980       36.91950       40.07794
N         80.35864       40.89621       42.07173
C         80.66064       42.33306       42.10749
C         80.01146       43.07324       40.94130
O         78.79272       43.02419       40.84042
C         80.16251       42.91098       43.46189
C         80.45780       44.37928       43.70969
C         81.38696       44.74959       44.70018
C         79.78229       45.39427       43.00352
C         81.64070       46.09847       44.96881
C         80.03644       46.74152       43.27895
C         80.96538       47.09356       44.25966
H         79.79169       40.52354       42.84544
H         81.76281       42.45944       42.10883
H         80.66484       42.31139       44.25338
H         79.06868       42.74887       43.58078
H         81.91635       43.99551       45.26877
H         79.04179       45.15640       42.25480
H         82.35708       46.37239       45.73257
H         79.50538       47.51391       42.73724
H         81.15690       48.13712       44.47471
N         80.73065       43.82579       40.04635
C         80.12407       44.65237       39.00957
C         79.43691       43.81836       37.95055
O         78.39930       44.24591       37.46344
C         81.29099       45.49642       38.48582
C         82.47703       44.58243       38.67662
C         82.17592       43.95237       40.03756
H         79.37740       45.36575       39.42780
H         81.15250       45.92830       37.47093
H         81.44335       46.34054       39.19796
H         82.41401       43.79677       37.89305
H         83.47328       45.06773       38.60115
H         82.70452       42.97733       40.08751
H         82.47506       44.60973       40.88380
N         79.89372       42.58068       37.61079
C         79.15872       41.69729       36.71346
C         77.77934       41.44475       37.29489
O         76.79448       41.70483       36.61784
C         79.89959       40.36054       36.52380
C         81.25102       40.53103       35.80902
C         81.93891       39.20933       35.61836
O         83.15409       38.99634       36.15866
O         81.40831       38.32723       34.96198
H         80.75241       42.22953       38.05753
H         79.05398       42.17220       35.71185
H         79.26289       39.68297       35.91227
H         80.05601       39.90015       37.51630
H         81.91627       41.19637       36.39800
H         81.08814       40.99109       34.81120
N         77.64354       40.98818       38.57250
C         76.36398       40.78627       39.22094
H         75.50820       41.01602       38.55202
H         76.28097       39.73170       39.55500
H         76.29749       41.45034       40.10907
H         78.48910       40.80604       39.13245
Ca        82.45750       35.24063       36.64082
O         84.23036       36.49846       34.35945
H         83.66419       36.86063       33.63226
H         85.03648       36.15410       33.89937
O         85.28370       36.53791       37.79966
H         85.27309       37.52390       37.89049
H         86.18533       36.33094       37.44636
O         84.71437       33.30217       36.23686
H         84.62244       32.69880       35.45796
H         85.46854       33.90013       36.00585

Ca 1.0



