%chk=apoCaM-CA-Ng.loop2.water4.frame102.chk
%nprocshared=20
%mem=10GB
%nosave
#b3lyp/svp scf=(tight,noincore,xqc) Test 
#IOP(5/87=12) Density=Current Pop=(MK,readradii) iop(6/33=2) iop(6/42=6)

apoCaM-CA-Ng.loop2.water4.frame102 

   -2  1 
C         48.71696       24.75253       90.87108
C         49.62131       23.61373       90.51261
O         50.62336       23.85091       89.85150
H         47.84296       24.40572       91.46004
H         49.28199       25.49573       91.47233
H         48.35291       25.23874       89.94161
N         49.34443       22.33994       90.92163
C         50.22520       21.22400       90.59446
C         50.23394       20.96074       89.09034
O         51.15658       20.31419       88.61680
C         49.83080       19.96598       91.40031
C         50.91659       18.92160       91.45612
O         51.45824       18.59193       92.64544
O         51.30538       18.35911       90.44643
H         48.51116       22.17349       91.50674
H         51.24300       21.53135       90.92790
H         48.88681       19.53216       91.00386
H         49.64643       20.27814       92.45133
N         49.25456       21.46478       88.27155
C         49.27739       21.36766       86.81907
C         50.48710       22.12720       86.32349
O         50.54018       23.31902       86.59922
C         49.15736       19.91185       86.34646
H         48.46599       21.98782       88.67787
H         48.38325       21.88946       86.40932
H         49.99862       19.27962       86.69135
H         48.21126       19.47706       86.73297
H         49.11871       19.88283       85.23579
N         51.51573       21.53441       85.64675
C         52.70722       22.27232       85.25428
C         53.87516       21.83504       86.09773
O         54.91334       21.43610       85.58895
C         52.90380       22.22974       83.71996
C         51.81703       23.03799       83.03917
O         50.86003       23.59878       83.80807
O         51.85125       23.24508       81.83752
H         51.49326       20.52673       85.43757
H         52.62225       23.34821       85.52081
H         52.93182       21.18412       83.34467
H         53.87130       22.72103       83.47603
N         53.77565       22.02104       87.44589
C         54.89121       21.94393       88.36518
C         55.90113       22.99714       87.97741
O         57.07127       22.68381       87.81570
H         52.87929       22.34917       87.83789
H         55.32899       20.92284       88.38581
H         54.51743       22.18504       89.38539
N         55.47761       24.27154       87.73477
C         56.33834       25.31218       87.19115
C         57.09641       26.03086       88.28459
O         56.49348       26.53683       89.22027
C         55.52208       26.32762       86.36743
C         55.01350       25.71757       85.08240
N         53.69571       25.69544       84.79499
O         55.81053       25.25840       84.27754
H         54.46703       24.47018       87.81279
H         57.06506       24.86440       86.47728
H         56.18230       27.17327       86.07537
H         54.69012       26.73390       86.98133
H         53.01280       26.08654       85.45097
H         53.36024       25.29412       83.90750
N         58.44631       26.15973       88.17304
C         59.29165       26.88828       89.09954
C         58.95390       28.36211       89.16050
O         58.80796       28.98810       88.11944
H         58.91600       25.73316       87.35971
H         60.33539       26.81624       88.72427
H         59.26258       26.41938       90.10591
N         58.90969       29.00145       90.36497
C         58.73037       30.44876       90.49327
C         57.26855       30.88096       90.35638
O         57.01354       32.07455       90.38805
C         59.35915       30.97396       91.81883
C         58.66496       30.48761       93.10186
O         60.73497       30.67840       91.85809
H         59.13116       28.44522       91.20270
H         59.31364       30.94190       89.68267
H         59.27283       32.08266       91.82244
H         60.84348       29.71827       92.08482
H         57.61991       30.83781       93.12015
H         58.68081       29.38268       93.19383
H         59.17627       30.91760       93.98871
N         56.25997       29.96986       90.23411
C         54.83585       30.30676       90.13543
C         54.23455       29.70019       88.87770
O         54.92678       28.98026       88.17359
C         54.07061       29.77348       91.39268
C         54.34023       28.25721       91.62982
C         54.42952       30.61615       92.62375
C         53.52525       27.63784       92.76119
H         56.50412       28.97342       90.22439
H         54.69042       31.40753       90.06209
H         52.98134       29.91998       91.22928
H         55.41037       28.08637       91.87340
H         54.09640       27.69549       90.70250
H         53.82009       30.32533       93.50225
H         55.49490       30.49760       92.87751
H         54.22038       31.68933       92.42546
H         53.77763       28.09731       93.73791
H         52.44021       27.74701       92.55943
H         53.77069       26.55610       92.82958
N         52.92430       29.93337       88.55220
C         52.24586       29.24487       87.45792
C         51.85301       30.23316       86.36135
O         50.74213       30.19034       85.85415
C         51.07922       28.44134       88.08501
C         50.38874       27.47474       87.16949
O         51.01233       26.56942       86.64645
O         49.05660       27.53513       87.00720
H         52.37110       30.58707       89.12702
H         52.94647       28.52637       86.98242
H         50.33614       29.14733       88.51788
H         51.49437       27.83403       88.91968
N         52.77274       31.15476       85.94899
C         52.63194       32.09616       84.83329
C         51.27689       32.80465       84.77394
O         50.86195       33.36894       85.77173
C         53.82874       33.08913       84.83191
C         54.03351       33.83942       86.13927
C         53.18239       34.88567       86.54239
C         55.11047       33.48652       86.97597
C         53.38726       35.53771       87.76387
C         55.31149       34.14262       88.19224
C         54.44785       35.16249       88.59030
H         53.66860       31.16707       86.45747
H         52.73674       31.49744       83.90973
H         53.76708       33.80165       83.98105
H         54.73051       32.46367       84.64919
H         52.36515       35.21065       85.91617
H         55.79047       32.69172       86.69519
H         52.72447       36.33673       88.07019
H         56.13687       33.85883       88.82749
H         54.60550       35.66525       89.53596
N         50.52630       32.82524       83.62001
C         49.20823       33.43829       83.47934
C         48.19383       32.93736       84.49043
O         47.54911       33.74290       85.14628
C         48.76722       33.02268       82.06286
C         50.08039       32.99878       81.32695
C         50.98619       32.30981       82.34188
H         49.32059       34.54417       83.54206
H         48.40313       31.96996       82.05513
H         47.97662       33.66250       81.61672
H         50.06523       32.52072       80.32416
H         50.41350       34.05631       81.21400
H         50.87255       31.20323       82.33921
H         52.03031       32.60623       82.09923
N         48.00578       31.59814       84.65564
C         47.01762       31.00244       85.55718
C         47.26385       31.33125       87.02982
O         46.41352       30.99488       87.84302
C         47.05930       29.47043       85.39173
C         46.60421       28.98417       84.00217
C         47.06307       27.57026       83.79774
O         46.26615       26.65536       83.66731
O         48.38990       27.33318       83.77060
H         48.59650       30.96984       84.08971
H         46.00832       31.38272       85.28466
H         46.43384       28.95439       86.15423
H         48.11741       29.18783       85.56043
H         47.05990       29.58029       83.18595
H         45.49895       29.07995       83.92879
N         48.39102       31.96021       87.46105
C         48.62065       32.28618       88.85069
H         49.60667       32.78776       88.96114
H         47.83041       32.97766       89.21239
H         48.62212       31.36115       89.46417
H         49.12437       32.20712       86.79597
Ca        49.42116       25.33180       83.77441
O         50.11696       26.23126       80.98718
H         49.96884       26.33527       80.01448
H         50.30383       25.26675       81.10563
O         47.48590       24.56857       85.97857
H         46.55704       24.48877       85.64518
H         47.43772       24.28179       86.92487
O         51.61144       27.66889       83.31219
H         52.58236       27.85070       83.24710
H         51.33694       28.08966       84.16473
O         47.99045       22.89653       82.65721
H         47.39572       23.68720       82.70193
H         48.69976       23.15649       82.01676

Ca 1.0



