%chk=apoCaM-CA-Ng.loop3.water2.frame524.chk
%nprocshared=20
%mem=10GB
%nosave
#b3lyp/svp scf=(tight,noincore,xqc) Test 
#IOP(5/87=12) Density=Current Pop=(MK,readradii) iop(6/33=2) iop(6/42=6)

apoCaM-CA-Ng.loop3.water2.frame524 

   0  1 
C         78.04592      -15.15580       65.74880
C         77.57155      -16.35607       66.51394
O         76.64261      -17.01808       66.07263
H         79.11175      -15.29254       65.46835
H         77.45279      -15.01930       64.81900
H         77.94847      -14.24566       66.37551
N         78.19548      -16.71656       67.66993
C         77.83056      -17.91320       68.41833
C         76.44189      -17.77959       69.01311
O         76.23224      -16.92026       69.85929
C         78.86270      -18.17744       69.53638
C         78.68902      -19.49889       70.23676
O         79.53723      -19.83479       71.22590
O         77.80764      -20.27877       69.91227
H         78.99597      -16.14757       67.98819
H         77.87043      -18.77344       67.71423
H         78.82403      -17.35455       70.28344
H         79.87320      -18.18628       69.08950
N         75.43831      -18.60437       68.60690
C         74.09737      -18.54776       69.17188
C         74.11789      -19.06052       70.60901
O         73.75170      -18.31405       71.50526
C         73.11685      -19.31473       68.25512
C         71.64892      -19.18756       68.70344
C         70.65127      -19.79065       67.69342
C         70.56152      -18.98841       66.37811
N         69.56407      -19.56306       65.47506
H         75.63158      -19.27636       67.84742
H         73.75271      -17.48787       69.15369
H         73.39573      -20.38808       68.17720
H         73.22423      -18.85864       67.24980
H         71.38280      -18.11949       68.86219
H         71.53850      -19.71906       69.67304
H         69.64367      -19.77461       68.16331
H         70.91933      -20.84903       67.48472
H         71.53912      -18.97314       65.85411
H         70.27500      -17.93806       66.61087
H         69.83934      -20.53660       65.21031
H         68.62272      -19.57172       65.93055
H         69.51189      -18.98037       64.60773
N         74.54501      -20.32653       70.90082
C         74.56222      -20.87861       72.26432
C         75.53614      -20.17404       73.22265
O         75.46958      -20.44842       74.41274
C         74.84111      -22.40024       72.22971
C         76.16170      -22.71248       71.59589
O         77.20382      -22.31649       72.08229
O         76.19962      -23.37440       70.43640
H         74.82239      -20.92966       70.11140
H         73.53810      -20.75270       72.67941
H         74.04281      -22.88387       71.62442
H         74.80516      -22.83676       73.25044
N         76.44779      -19.25442       72.79309
C         77.30322      -18.45988       73.66800
C         78.40577      -19.17412       74.44661
O         79.14848      -18.46408       75.10605
H         76.49155      -19.03159       71.79141
H         76.66275      -17.90200       74.38504
H         77.82075      -17.70856       73.03170
N         78.59208      -20.52827       74.44745
C         79.66512      -21.19093       75.20097
C         80.54235      -22.03051       74.27861
O         80.25638      -22.13135       73.09533
C         79.05636      -22.09280       76.29773
C         78.25835      -21.30634       77.31012
N         78.63796      -21.26751       78.60928
O         77.25434      -20.70533       76.95860
H         77.94533      -21.12210       73.92753
H         80.32556      -20.44440       75.69243
H         79.87500      -22.61978       76.83152
H         78.40411      -22.86801       75.83939
H         79.48062      -21.76511       78.93253
H         78.08907      -20.73200       79.29789
N         81.63427      -22.68911       74.77910
C         82.44905      -23.58645       73.97259
C         83.16635      -22.87598       72.85259
O         83.35780      -21.67000       72.92481
H         81.87305      -22.59281       75.77608
H         81.78798      -24.37626       73.55730
H         83.21403      -24.08795       74.60562
N         83.59256      -23.58545       71.76370
C         84.28465      -22.97031       70.63300
C         83.44145      -21.88031       69.96844
O         82.31751      -21.63744       70.39349
C         84.72624      -24.03874       69.59889
C         85.66666      -25.08074       70.16912
C         86.89006      -24.70244       70.75310
C         85.34430      -26.44727       70.09149
C         87.76786      -25.66998       71.25218
C         86.22885      -27.41375       70.58337
C         87.44445      -27.02721       71.16566
O         88.30967      -27.94760       71.63827
H         83.41748      -24.60162       71.74968
H         85.19795      -22.47100       71.02303
H         85.27112      -23.55052       68.76615
H         83.82573      -24.52215       69.16527
H         87.17134      -23.65994       70.82101
H         84.41499      -26.76851       69.63821
H         88.70537      -25.36408       71.69999
H         85.97109      -28.46270       70.50660
H         88.13213      -28.89765       71.58567
N         83.97549      -21.12605       68.96556
C         83.41162      -19.89069       68.42027
C         82.05436      -20.05535       67.74145
O         81.10630      -20.48198       68.38063
C         83.31133      -18.78930       69.52654
C         82.88942      -17.40265       68.95594
C         84.61934      -18.66183       70.33038
C         83.87237      -16.77311       67.96108
H         84.91996      -21.36951       68.62719
H         84.13971      -19.52350       67.66898
H         82.52448      -19.08883       70.25379
H         82.75876      -16.69569       69.80371
H         81.90901      -17.48590       68.44770
H         84.85549      -19.61199       70.85281
H         85.47626      -18.40943       69.67393
H         84.51165      -17.87904       71.11120
H         84.86316      -16.60247       68.42770
H         83.99501      -17.39891       67.05540
H         83.47746      -15.78917       67.63277
N         81.86325      -19.57107       66.47639
C         80.52188      -19.39595       65.92221
C         79.79660      -20.69337       65.64006
O         78.58582      -20.63545       65.45526
C         80.53724      -18.51824       64.66179
O         81.07466      -17.25417       64.95169
H         82.66746      -19.17999       65.96725
H         79.93702      -18.84216       66.68465
H         79.49842      -18.36538       64.29565
H         81.10070      -19.01853       63.84048
H         82.03298      -17.27513       64.69580
N         80.43593      -21.89631       65.56921
C         79.69233      -23.13139       65.36667
C         78.81027      -23.35873       66.60746
O         79.62906      -23.54235       67.72570
C         80.63543      -24.31515       65.12473
H         81.46284      -21.93437       65.65831
H         79.07114      -23.01975       64.45849
H         81.24330      -24.12485       64.21504
H         81.31885      -24.46539       65.98662
H         80.04915      -25.24415       64.96202
N         77.85727      -24.47353       66.50539
C         76.81383      -24.25714       65.48387
C         77.14043      -25.14730       64.30280
O         77.28931      -26.34057       64.53034
C         75.42052      -24.65681       66.01027
H         77.40043      -24.56249       67.44076
H         76.71488      -23.18134       65.24303
H         75.40031      -25.72052       66.32982
H         75.13555      -24.02002       66.87545
H         74.65589      -24.50992       65.21627
N         77.23970      -24.72554       63.01049
C         77.01571      -23.37344       62.51566
C         78.02798      -23.06850       61.42711
O         78.78087      -22.11497       61.57175
C         75.55223      -23.25663       62.05695
C         75.19228      -21.84811       61.56761
C         73.71253      -21.72856       61.33708
O         73.15170      -22.44719       60.52529
O         72.99488      -20.82777       62.03630
H         77.38355      -25.46688       62.30825
H         77.15095      -22.61712       63.30931
H         74.91808      -23.48421       62.94323
H         75.32406      -24.00592       61.26831
H         75.73659      -21.62298       60.62579
H         75.48820      -21.10146       62.33658
N         78.12218      -23.86321       60.32211
C         79.10513      -23.66914       59.27605
H         79.75822      -24.56627       59.22152
H         78.58805      -23.54315       58.30281
H         79.74812      -22.78234       59.45519
H         77.48517      -24.66635       60.21818
Ca        78.13764      -23.21585       69.35973
O         79.24311      -24.95244       71.95474
H         78.56472      -25.49907       71.48409
H         78.82660      -24.73350       72.82577
O         81.25649      -24.92859       69.65514
H         81.65647      -25.55173       70.31152
H         81.32930      -25.40295       68.78904

Ca 1.0



