%chk=apoCaM-CA-Ng.loop2.water4.frame609.chk
%nprocshared=20
%mem=10GB
%nosave
#b3lyp/svp scf=(tight,noincore,xqc) Test 
#IOP(5/87=12) Density=Current Pop=(MK,readradii) iop(6/33=2) iop(6/42=6)

apoCaM-CA-Ng.loop2.water4.frame609 

   -2  1 
C         64.03484       24.78913       66.30597
C         63.40167       26.14406       66.14353
O         62.59829       26.31746       65.23872
H         64.76716       24.77796       67.14160
H         63.25850       24.02231       66.50394
H         64.57819       24.52457       65.37330
N         63.74768       27.16899       66.97073
C         63.26345       28.53512       66.80035
C         61.75787       28.64608       67.00294
O         61.27402       28.34989       68.08625
C         63.99420       29.47245       67.79131
C         63.67280       30.93808       67.62234
O         62.90264       31.32921       66.75896
O         64.25957       31.83586       68.43539
H         64.43862       26.97954       67.71412
H         63.53851       28.86496       65.77384
H         65.09024       29.35700       67.64675
H         63.74885       29.17067       68.83329
N         60.97193       29.15076       66.00620
C         59.54742       29.45411       66.16850
C         58.72897       28.19221       66.41222
O         59.28866       27.11514       66.25471
C         59.05652       30.16791       64.89995
H         61.42954       29.39798       65.11511
H         59.46034       30.14732       67.02736
H         59.68446       31.06333       64.71008
H         59.13476       29.48589       64.02540
H         58.01827       30.52167       64.97405
N         57.41060       28.17420       66.78710
C         56.52658       29.31203       67.08953
C         57.02968       30.20720       68.21402
O         57.93731       29.83664       68.94385
C         55.10289       28.81268       67.48566
C         55.14509       27.98587       68.75473
O         54.52228       28.32202       69.74953
O         55.93418       26.89368       68.76669
H         57.00232       27.23304       66.83185
H         56.41998       29.91918       66.17517
H         54.68839       28.19176       66.66341
H         54.41743       29.67868       67.62533
N         56.43210       31.42097       68.39761
C         56.72837       32.37831       69.45249
C         58.20076       32.50453       69.78405
O         58.97696       32.64855       68.84994
H         55.68927       31.69760       67.73673
H         56.05830       32.18744       70.30432
H         56.41628       33.37674       69.07203
N         58.70070       32.55309       71.05827
C         57.93906       32.55067       72.31127
C         58.56466       31.62285       73.36073
O         58.18018       31.70762       74.51867
C         57.91796       34.00275       72.83960
C         57.21930       34.92809       71.86847
N         57.88213       35.95453       71.28625
O         56.04027       34.74439       71.60311
H         59.71363       32.73752       71.14537
H         56.88680       32.24089       72.19078
H         58.96164       34.34326       73.01552
H         57.37036       34.05563       73.80576
H         58.87679       36.12712       71.49058
H         57.39975       36.57648       70.62008
N         59.53247       30.71757       73.03690
C         60.27241       29.91699       74.00439
C         59.42822       29.02568       74.89123
O         59.60388       29.07484       76.10104
H         59.80517       30.60163       72.05071
H         60.88603       30.59044       74.64240
H         60.97317       29.26290       73.44229
N         58.50909       28.17081       74.36612
C         57.75266       27.19913       75.16200
C         57.81471       25.82041       74.50559
O         58.43937       25.68502       73.46023
C         56.30796       27.69647       75.40284
C         56.30496       28.93815       76.30789
O         55.68448       27.98715       74.18296
H         58.33765       28.21402       73.35245
H         58.21636       27.07479       76.16640
H         55.73999       26.90279       75.93711
H         54.72636       28.15230       74.38529
H         56.84127       29.78264       75.83139
H         55.26240       29.25622       76.51763
H         56.79233       28.70344       77.27969
N         57.22694       24.73437       75.09478
C         57.37579       23.37016       74.59220
C         56.02700       22.77745       74.19729
O         55.12825       22.68975       75.02237
C         58.07017       22.47121       75.66337
C         58.24863       21.01194       75.14542
C         59.43609       23.07246       76.05433
C         58.73258       20.03253       76.21611
H         56.69917       24.86202       75.97117
H         58.03837       23.36376       73.70336
H         57.41932       22.44930       76.56539
H         58.95372       20.99331       74.28762
H         57.27482       20.61213       74.79512
H         59.31762       24.10379       76.44554
H         59.92266       22.48687       76.85851
H         60.11356       23.10329       75.17309
H         59.73926       20.29460       76.59498
H         58.01117       20.00907       77.06040
H         58.79469       19.01260       75.78195
N         55.88866       22.23281       72.95753
C         54.78848       21.39443       72.51901
C         55.22259       19.94255       72.62629
O         54.50259       19.15334       73.21927
C         54.43788       21.67069       71.03713
C         53.93015       23.05627       70.78758
O         52.81334       23.48860       71.40147
O         54.49980       23.78160       69.98856
H         56.69132       22.27197       72.33339
H         53.88155       21.54973       73.14523
H         53.64632       20.96044       70.71320
H         55.33018       21.49479       70.39723
N         56.37818       19.52078       72.02790
C         56.78501       18.12315       71.93501
C         58.00227       18.01816       70.99668
O         59.02977       17.48825       71.40264
C         57.08912       17.51984       73.33705
C         57.10217       16.00757       73.29524
C         58.29590       15.27701       73.42315
C         55.88807       15.31216       73.14062
C         58.27315       13.87727       73.37829
C         55.86830       13.91502       73.11435
C         57.06071       13.19761       73.22741
H         56.95464       20.22116       71.54439
H         55.93742       17.56964       71.47594
H         56.32964       17.79981       74.09476
H         58.05331       17.93614       73.70143
H         59.24315       15.78667       73.54234
H         54.95365       15.85379       73.05633
H         59.19534       13.31717       73.46223
H         54.92788       13.38900       73.00681
H         57.04380       12.11532       73.20021
N         57.98077       18.52856       69.72209
C         59.07868       18.40893       68.76636
C         60.35031       19.18663       69.08794
O         61.26682       19.11721       68.28013
C         58.48842       18.95732       67.45976
C         57.01006       18.66871       67.62619
C         56.80792       19.07819       69.07440
H         59.29929       17.32307       68.65188
H         58.58849       20.06872       67.44873
H         58.96191       18.55609       66.53823
H         56.35575       19.20317       66.90584
H         56.84458       17.57145       67.53960
H         56.86388       20.18845       69.14151
H         55.83912       18.71831       69.47421
N         60.49376       19.94253       70.21857
C         61.73030       20.65484       70.52813
C         62.52408       19.78173       71.47214
O         63.63801       19.39653       71.14515
C         61.55349       22.07651       71.15286
C         60.48729       23.03413       70.55225
C         59.10675       22.75437       71.10346
O         58.04098       23.56028       70.89819
O         58.94968       21.81580       71.86142
H         59.75710       19.90652       70.92468
H         62.31193       20.80364       69.59025
H         62.54964       22.56386       71.06121
H         61.35919       22.01624       72.24664
H         60.51651       23.03690       69.44166
H         60.73744       24.05521       70.91050
N         61.97360       19.38536       72.65472
C         62.64886       18.49022       73.56516
H         63.59395       18.94931       73.92089
H         61.99525       18.28265       74.43981
H         62.86574       17.52787       73.05387
H         61.02610       19.70467       72.90893
Ca        56.90331       25.35016       70.09765
O         57.15233       24.60855       67.31195
H         56.87834       23.65780       67.32408
H         58.00481       24.62165       66.80971
O         56.70866       28.37457       71.47255
H         56.76660       29.33018       71.72422
H         57.51333       28.20761       70.92184
O         54.70737       26.30244       72.15366
H         54.64551       25.31904       72.22397
H         53.89890       26.63411       72.61828
O         59.70414       26.13738       69.60360
H         59.81866       25.85465       68.66179
H         59.45030       27.09246       69.55174

Ca 1.0



