%chk=apoCaM-CA-Ng.loop2.water4.frame669.chk
%nprocshared=20
%mem=10GB
%nosave
#b3lyp/svp scf=(tight,noincore,xqc) Test 
#IOP(5/87=12) Density=Current Pop=(MK,readradii) iop(6/33=2) iop(6/42=6)

apoCaM-CA-Ng.loop2.water4.frame669 

   -2  1 
C         -6.52455       42.54784       81.76441
C         -7.94165       43.00098       81.56589
O         -8.23183       43.58799       80.53361
H         -5.84581       43.42529       81.73634
H         -6.39512       42.03089       82.73882
H         -6.24414       41.84289       80.95366
N         -8.88592       42.74654       82.51410
C        -10.28534       43.12821       82.38458
C        -11.11114       41.86217       82.33268
O        -11.02849       41.05999       83.25447
C        -10.68268       44.03130       83.56645
C        -12.10403       44.51008       83.45799
O        -12.45768       45.17607       82.49764
O        -12.99040       44.22005       84.42918
H         -8.60615       42.23452       83.36588
H        -10.44827       43.70672       81.44868
H        -10.01765       44.92213       83.58140
H        -10.54496       43.48242       84.52405
N        -11.91215       41.59750       81.25985
C        -12.62297       40.33029       81.12555
C        -11.61271       39.19409       80.95492
O        -10.48845       39.48109       80.56706
C        -13.57598       40.38465       79.92372
H        -12.00262       42.30825       80.51723
H        -13.22062       40.19111       82.05268
H        -13.00926       40.57112       78.98655
H        -14.14503       39.44042       79.80830
H        -14.30567       41.21110       80.06609
N        -11.87165       37.88851       81.26553
C        -13.14098       37.37683       81.75304
C        -13.07184       37.01696       83.22516
O        -12.28699       36.16852       83.61973
C        -13.64356       36.20495       80.89466
C        -12.81604       34.93979       80.79384
O        -11.58281       34.75246       81.32195
O        -13.29748       34.01608       80.15752
H        -11.09508       37.22105       81.17174
H        -13.92342       38.14944       81.65034
H        -13.80316       36.57700       79.85889
H        -14.63814       35.91274       81.29984
N        -13.90821       37.64103       84.10042
C        -13.95420       37.31865       85.51999
C        -14.96633       38.18110       86.27303
O        -15.56574       39.06264       85.67355
H        -14.54490       38.35665       83.72273
H        -12.94473       37.47356       85.95196
H        -14.23489       36.24871       85.62879
N        -15.24939       38.00886       87.59686
C        -14.67398       36.97594       88.45164
C        -13.17114       37.11012       88.57097
O        -12.63736       38.20196       88.42208
C        -15.35480       36.97751       89.83748
C        -15.18374       38.29026       90.56930
N        -16.24938       39.09116       90.80616
O        -14.07379       38.63785       90.94331
H        -15.96061       38.63624       88.00418
H        -14.89972       35.99114       87.98437
H        -14.96727       36.14839       90.46873
H        -16.43756       36.78513       89.67023
H        -17.19272       38.82754       90.48582
H        -16.12841       39.99107       91.29369
N        -12.41864       35.99246       88.73541
C        -10.97105       36.02475       88.68068
C        -10.42739       34.62304       88.64630
O         -9.60555       34.26948       89.47983
H        -12.90049       35.08407       88.82891
H        -10.55930       36.60913       89.53307
H        -10.66180       36.51736       87.73362
N        -10.83970       33.77646       87.65967
C        -10.30877       32.43715       87.48017
C         -9.18681       32.51109       86.48573
O         -9.41565       32.90022       85.34699
C        -11.40375       31.46919       86.96763
C        -10.83871       30.08256       86.62396
O        -12.40610       31.32167       87.93855
H        -11.49241       34.13791       86.94597
H         -9.92083       32.04220       88.44615
H        -11.84077       31.86454       86.02229
H        -13.07591       32.03570       87.77579
H        -10.07873       30.15252       85.81514
H        -10.36698       29.61825       87.51449
H        -11.65073       29.42399       86.25181
N         -7.93376       32.13259       86.85177
C         -6.84070       32.11151       85.90241
C         -7.10578       31.04308       84.85004
O         -7.15199       29.86879       85.18741
C         -5.46846       31.91732       86.62620
C         -4.30726       31.63297       85.63128
C         -5.16376       33.18054       87.46434
C         -2.97493       31.32211       86.31675
H         -7.75879       31.85294       87.82923
H         -6.81565       33.09743       85.42874
H         -5.55289       31.03336       87.29571
H         -4.16252       32.48552       84.93802
H         -4.55593       30.73327       85.02996
H         -4.24176       33.06294       88.06593
H         -5.03650       34.06224       86.79606
H         -5.98552       33.40346       88.17461
H         -2.22082       31.04568       85.55003
H         -2.58389       32.20098       86.86641
H         -3.09387       30.46808       87.01707
N         -7.23304       31.39886       83.53839
C         -7.32010       30.45511       82.43272
C         -6.05004       30.51601       81.58970
O         -5.95621       29.76593       80.62686
C         -8.52387       30.79380       81.53369
C         -9.81221       30.86616       82.29346
O        -10.27538       29.79282       82.96042
O        -10.45213       31.90456       82.29698
H         -7.19977       32.39258       83.28923
H         -7.42569       29.41704       82.81754
H         -8.62072       30.02529       80.73601
H         -8.34635       31.77694       81.04340
N         -5.02562       31.36971       81.89628
C         -3.78166       31.46261       81.15297
C         -3.55366       32.91198       80.71213
O         -2.53030       33.48447       81.06503
C         -2.69179       30.86497       82.07553
C         -1.27947       30.81772       81.54636
C         -0.22345       31.26548       82.36202
C         -0.98583       30.27888       80.28191
C          1.09944       31.16865       81.92423
C          0.33973       30.20067       79.84093
C          1.38120       30.63926       80.66342
H         -5.08261       31.96859       82.72782
H         -3.82138       30.83653       80.23710
H         -2.99095       29.81189       82.27123
H         -2.70671       31.39453       83.05340
H         -0.41909       31.66432       83.35028
H         -1.77532       29.91880       79.63643
H          1.90630       31.49632       82.56742
H          0.56118       29.78972       78.86478
H          2.40704       30.56343       80.32707
N         -4.45572       33.57737       79.91336
C         -4.26126       34.91844       79.36259
C         -4.02324       36.04588       80.35600
O         -3.70326       37.14062       79.91523
C         -5.57664       35.20249       78.62429
C         -5.98252       33.82500       78.16201
C         -5.66675       32.97677       79.38892
H         -3.39617       34.84993       78.66655
H         -6.34727       35.52280       79.36366
H         -5.51258       35.97810       77.83196
H         -7.02648       33.73038       77.79391
H         -5.28506       33.53358       77.34460
H         -6.45547       33.05077       80.16654
H         -5.53740       31.92781       79.05328
N         -4.20998       35.88148       81.69468
C         -3.95007       36.94862       82.65489
C         -2.44826       37.12785       82.72211
O         -1.95126       38.21210       82.45204
C         -4.48483       36.66069       84.08450
C         -6.01252       36.42364       84.22417
C         -6.42246       35.09548       83.66786
O         -7.60997       34.84744       83.07028
O         -5.65776       34.16075       83.82072
H         -4.52787       34.97139       82.02003
H         -4.46130       37.87963       82.32131
H         -4.23791       37.54915       84.70706
H         -3.94740       35.79930       84.53962
H         -6.62816       37.25427       83.82655
H         -6.20232       36.35885       85.31758
N         -1.66064       36.06170       83.04621
C         -0.21846       36.13033       83.08166
H          0.11015       36.86611       83.84397
H          0.19654       35.13234       83.34408
H          0.16989       36.41876       82.08218
H         -2.10008       35.15139       83.25466
Ca        -9.71960       35.46820       82.45106
O        -12.56214       33.37170       83.97924
H        -12.44047       32.42071       83.73730
H        -13.45634       33.40301       84.40163
O         -9.31342       36.27953       85.39006
H         -8.58313       36.25790       86.05807
H         -9.37331       37.22948       85.11727
O         -8.94893       34.41752       79.76890
H         -9.35081       35.30747       79.60606
H         -8.24692       34.58701       80.44532
O         -8.34017       38.10573       82.05225
H         -8.57674       37.62901       81.21686
H         -9.17792       38.12279       82.58077

Ca 1.0



