%chk=apoCaM-CA-Ng.loop2.water3.frame625.chk
%nprocshared=20
%mem=10GB
%nosave
#b3lyp/svp scf=(tight,noincore,xqc) Test 
#IOP(5/87=12) Density=Current Pop=(MK,readradii) iop(6/33=2) iop(6/42=6)

apoCaM-CA-Ng.loop2.water3.frame625 

   -2  1 
C         71.88272       39.50015        0.00995
C         71.86891       40.97397        0.28628
O         70.79048       41.54485        0.36561
H         71.38477       39.29969       -0.96151
H         72.91880       39.10405       -0.03146
H         71.33399       38.96967        0.81672
N         73.03405       41.66435        0.44657
C         73.06407       43.09124        0.74292
C         72.38613       43.34048        2.07474
O         72.84021       42.81403        3.08121
C         74.51943       43.60512        0.76493
C         74.59737       45.08188        1.04105
O         75.27445       45.53151        2.11502
O         74.05611       45.87920        0.29156
H         73.92664       41.15475        0.35372
H         72.52820       43.63067       -0.07002
H         74.98862       43.40918       -0.22385
H         75.10044       43.05554        1.53796
N         71.28042       44.13348        2.14835
C         70.57388       44.37129        3.40046
C         69.92300       43.08800        3.90769
O         69.69034       42.19332        3.10689
C         69.48152       45.42792        3.18783
H         70.94179       44.58964        1.28732
H         71.30930       44.77102        4.12397
H         68.74588       45.07137        2.43542
H         68.92959       45.65343        4.11956
H         69.93865       46.37242        2.82696
N         69.54130       42.91241        5.20661
C         69.86176       43.83768        6.29489
C         71.37294       43.88880        6.53097
O         72.09879       43.06545        5.98940
C         69.13506       43.42090        7.59855
C         69.45130       41.99951        7.94819
O         70.73004       41.60769        7.95928
O         68.56206       41.17752        8.10301
H         69.02514       42.04554        5.42470
H         69.50781       44.85181        6.03767
H         68.03442       43.52136        7.47438
H         69.44597       44.08597        8.43184
N         71.91356       44.83899        7.34175
C         73.33723       44.92639        7.64670
C         74.21314       45.15162        6.41958
O         73.69586       45.18385        5.31337
H         71.28613       45.53280        7.77731
H         73.65980       43.99934        8.16645
H         73.47903       45.78760        8.33533
N         75.56049       45.37555        6.51191
C         76.30681       45.47082        7.76197
C         77.56335       44.58797        7.78306
O         78.25343       44.61042        8.79204
C         76.74182       46.94332        7.98335
C         75.59044       47.92609        8.04494
N         74.85045       48.22141        6.94838
O         75.34587       48.49165        9.10016
H         76.06690       45.58589        5.63676
H         75.67790       45.17179        8.62480
H         77.44307       47.26998        7.18430
H         77.28564       46.99392        8.95262
H         75.05580       47.80088        6.03193
H         74.07773       48.90115        7.00707
N         77.97112       43.84600        6.70814
C         79.27755       43.19459        6.65239
C         79.48458       41.99625        7.56162
O         80.60709       41.50385        7.57459
H         77.41218       43.83451        5.84576
H         80.05100       43.96008        6.88709
H         79.46464       42.84997        5.61293
N         78.50113       41.45540        8.33650
C         78.72327       40.32441        9.24505
C         77.84286       39.13380        8.88665
O         77.07981       39.22787        7.92795
C         78.46333       40.78354       10.69896
C         79.44146       41.88347       11.12164
O         77.14177       41.24831       10.81895
H         77.55557       41.86888        8.30278
H         79.77523       39.96337        9.18652
H         78.63265       39.92058       11.38189
H         76.83352       41.02474       11.73534
H         79.32994       42.78548       10.48586
H         79.25104       42.16948       12.17710
H         80.48687       41.51465       11.04091
N         77.88392       37.97884        9.62089
C         77.02901       36.82396        9.36025
C         76.07826       36.64672       10.53349
O         76.54105       36.39772       11.64191
C         77.83839       35.50566        9.17399
C         76.87530       34.38509        8.69227
C         79.01240       35.67940        8.19575
C         77.45136       32.97526        8.78600
H         78.52700       37.91980       10.42757
H         76.44997       37.00602        8.42969
H         78.27235       35.22722       10.16082
H         76.57454       34.60131        7.64759
H         75.95443       34.37064        9.31257
H         78.65064       35.97104        7.18782
H         79.71160       36.45776        8.56748
H         79.59882       34.74155        8.11447
H         76.69048       32.25061        8.42290
H         78.36356       32.85512        8.17124
H         77.68024       32.73719        9.84677
N         74.73736       36.77727       10.36758
C         73.76700       36.66325       11.44516
C         72.61746       35.68907       11.14386
O         71.73362       35.61406       11.98534
C         73.24968       38.07299       11.77663
C         72.71252       38.75070       10.56783
O         73.20713       39.80021       10.18342
O         71.71547       38.18958        9.87006
H         74.38526       37.06179        9.44703
H         74.24573       36.29710       12.37900
H         74.09293       38.68196       12.17359
H         72.46379       38.03069       12.55905
N         72.55731       34.88019       10.03172
C         71.50912       33.86085        9.89647
C         71.09684       33.62115        8.43159
O         71.32256       32.52893        7.92857
C         72.00010       32.54975       10.56251
C         70.85023       31.59486       10.80199
C         70.71086       30.41202       10.05632
C         69.89952       31.89304       11.79640
C         69.62989       29.55409       10.29292
C         68.83210       31.02535       12.04055
C         68.69404       29.85883       11.28590
H         73.34728       34.86359        9.37239
H         70.60506       34.18334       10.45552
H         72.46056       32.75634       11.55318
H         72.79499       32.09842        9.92826
H         71.42516       30.16161        9.28265
H         69.99324       32.79303       12.39217
H         69.51655       28.65154        9.70680
H         68.11191       31.25864       12.81473
H         67.86231       29.19139       11.47209
N         70.45320       34.56373        7.67726
C         70.00228       34.35208        6.30228
C         71.07891       33.86815        5.35143
O         70.76012       33.13525        4.42516
C         69.53555       35.74382        5.87005
C         68.97531       36.28610        7.16288
C         70.04756       35.86227        8.16395
H         69.15185       33.63226        6.31948
H         70.42095       36.37262        5.61672
H         68.83984       35.74360        5.00311
H         68.73782       37.36827        7.17242
H         68.04021       35.71804        7.37884
H         70.93168       36.53119        8.13917
H         69.58699       35.83467        9.17375
N         72.37738       34.24482        5.52078
C         73.45455       33.81962        4.63504
C         73.53880       32.30291        4.62852
O         73.42462       31.70976        3.56514
C         74.83359       34.38194        5.05776
C         75.03651       35.91139        4.99180
C         74.27357       36.67144        6.02861
O         73.62144       37.65876        5.73251
O         74.32805       36.27018        7.30511
H         72.59387       34.83778        6.32752
H         73.24608       34.18242        3.60375
H         75.58596       33.95040        4.36170
H         75.08440       34.02338        6.07647
H         74.82178       36.30774        3.97607
H         76.10991       36.09219        5.21272
N         73.72407       31.61404        5.79168
C         73.80400       30.16886        5.86308
H         74.77457       29.87598        6.31524
H         72.98052       29.78728        6.50272
H         73.72373       29.68896        4.86511
H         73.79972       32.13345        6.67908
Ca        71.20465       39.47567        8.17674
O         72.36489       39.97485        4.34023
H         72.62572       40.80322        4.81322
H         71.75956       40.27943        3.61871
O         69.84304       39.14280        5.45665
H         69.44258       38.66136        4.69021
H         69.06821       39.46619        5.98006
O         74.86147       41.08509        6.43611
H         75.20591       40.18940        6.19214
H         75.13224       41.66755        5.68247

Ca 1.0



