%chk=apoCaM-CA-Ng.loop4.water4.frame403.chk
%nprocshared=20
%mem=10GB
%nosave
#b3lyp/svp scf=(tight,noincore,xqc) Test 
#IOP(5/87=12) Density=Current Pop=(MK,readradii) iop(6/33=2) iop(6/42=6)

apoCaM-CA-Ng.loop4.water4.frame403 

   -3  1 
C         16.55890       82.19518       11.01700
C         18.01889       81.96809       10.76647
O         18.36431       81.59808        9.65519
H         16.00532       81.24666       10.85443
H         16.37325       82.54342       12.05419
H         16.17938       82.96282       10.30991
N         18.93999       82.19414       11.74872
C         20.37799       82.01462       11.58176
C         20.91537       82.88246       10.46759
O         21.52817       82.37156        9.55631
C         20.79823       80.51380       11.55991
C         20.01987       79.50822       10.72604
O         20.01911       79.45392        9.37358
O         19.39867       78.64092       11.32061
H         18.61257       82.55021       12.65965
H         20.88466       82.41530       12.49024
H         20.66428       80.17866       12.61430
H         21.88641       80.42681       11.34995
N         20.75569       84.23626       10.53877
C         21.25664       85.24325        9.59887
C         22.78596       85.25275        9.56379
O         23.37525       86.15327       10.14517
C         20.60145       85.14340        8.18606
C         20.98939       86.33090        7.25906
C         19.07121       85.00702        8.27721
C         20.48490       87.70834        7.71593
H         20.24127       84.60207       11.35568
H         20.93950       86.21484       10.03673
H         20.96061       84.21705        7.69616
H         20.57026       86.14049        6.24713
H         22.09443       86.37605        7.15434
H         18.61468       85.86593        8.80913
H         18.63195       84.92999        7.25979
H         18.79812       84.08373        8.82466
H         19.37726       87.73291        7.77244
H         20.90736       87.99477        8.69956
H         20.79525       88.47792        6.97866
N         23.49568       84.29590        8.89612
C         24.94656       84.19775        8.91252
C         25.57175       84.97402        7.75304
O         26.36391       85.85650        8.05323
C         25.39538       82.71676        8.98911
C         24.90996       82.00014       10.22623
O         24.16712       82.62933       11.15833
O         25.19793       80.82523       10.38885
H         22.99773       83.58743        8.35342
H         25.33525       84.66311        9.84838
H         26.50594       82.67429        8.98504
H         25.02288       82.14419        8.12315
N         25.31071       84.77847        6.42237
C         24.37415       83.80275        5.87827
C         24.24459       83.85765        4.36687
O         24.83663       84.74017        3.76124
H         25.81955       85.39371        5.76981
H         23.37368       84.03301        6.27523
H         24.72313       82.80192        6.15003
N         23.47852       82.99024        3.63169
C         22.71822       81.80592        4.05390
C         21.58342       82.08972        5.07466
O         22.09297       82.08995        6.37317
C         23.61679       80.63417        4.50778
C         24.62165       80.25185        3.45645
O         24.59426       79.13746        2.95968
O         25.57151       81.12615        3.07221
H         23.44092       83.17809        2.61638
H         22.21195       81.41911        3.14325
H         22.96205       79.75890        4.71884
H         24.16018       80.86464        5.44021
N         20.86847       83.35136        4.84004
C         20.31134       83.55184        3.49270
C         20.86898       84.82651        2.91943
O         21.66375       85.48426        3.57889
H         20.11190       83.46539        5.55245
H         19.20513       83.64589        3.54819
H         20.52386       82.71267        2.80323
N         20.46602       85.26001        1.69445
C         20.91448       86.52686        1.12688
C         19.81705       87.57913        1.18796
O         20.13976       88.74207        0.98582
C         21.60972       86.33509       -0.24138
C         20.86266       85.47953       -1.27699
C         19.54386       86.05023       -1.70095
N         19.48196       87.23849       -2.33878
O         18.51961       85.41772       -1.49446
H         19.76985       84.69908        1.18056
H         21.69731       86.97051        1.78172
H         22.56467       85.79813       -0.04715
H         21.87776       87.32782       -0.66454
H         20.71791       84.45772       -0.86658
H         21.50232       85.37544       -2.18029
H         20.33505       87.78083       -2.53775
H         18.57497       87.60233       -2.65302
N         18.54361       87.28125        1.59409
C         17.61152       88.30401        2.06842
C         16.39113       88.49811        1.19107
O         15.60749       89.38134        1.51368
C         17.16908       87.97547        3.53088
C         18.37678       87.85169        4.47261
C         16.30898       86.69838        3.62933
H         18.25634       86.29939        1.68890
H         18.11977       89.29312        2.08745
H         16.54395       88.81959        3.89810
H         19.02783       87.00111        4.17714
H         18.97535       88.78589        4.45741
H         18.03211       87.67476        5.51415
H         15.97023       86.56446        4.67674
H         15.40202       86.77679        2.99372
H         16.87090       85.78856        3.33400
N         16.13868       87.73285        0.09242
C         14.93771       87.91234       -0.71612
C         14.02143       86.70287       -0.65357
O         12.95342       86.79021       -1.24390
C         15.32503       88.23374       -2.17531
C         16.05614       89.55096       -2.29450
N         15.45916       90.71044       -1.93285
O         17.19051       89.57803       -2.74327
H         16.79949       86.99063       -0.17778
H         14.32076       88.75192       -0.33124
H         14.41105       88.30832       -2.80341
H         15.94951       87.40473       -2.57771
H         14.49542       90.72082       -1.57046
H         15.96102       91.60602       -2.02653
N         14.32331       85.56281        0.04581
C         13.41506       84.41239        0.08241
C         13.87592       83.28597        1.00452
O         15.02263       83.24299        1.42888
C         13.18376       83.85302       -1.35394
C         14.47451       83.74539       -2.15079
C         14.65685       84.56722       -3.28005
C         15.50953       82.86892       -1.77896
C         15.84800       84.52650       -4.00770
C         16.70232       82.82971       -2.51032
C         16.87785       83.65976       -3.62243
O         18.03801       83.61963       -4.30864
H         15.20953       85.50858        0.56594
H         12.44700       84.75777        0.50907
H         12.50543       84.54858       -1.88663
H         12.63952       82.88630       -1.33527
H         13.88181       85.25567       -3.59331
H         15.40620       82.21873       -0.92434
H         15.97060       85.17510       -4.86630
H         17.49542       82.15769       -2.20765
H         18.20155       84.18708       -5.07587
N         12.96914       82.31831        1.34100
C         13.24492       81.08764        2.07941
C         13.72344       81.26062        3.51800
O         13.93151       80.23656        4.15491
C         14.16629       80.16087        1.25649
C         13.49114       79.77601       -0.07591
C         14.29467       78.80561       -0.89448
O         15.49047       78.35368       -0.46908
O         13.85073       78.41249       -1.96140
H         12.00219       82.42862        0.99758
H         12.28155       80.53737        2.18260
H         14.33585       79.22200        1.82863
H         15.15044       80.64247        1.07566
H         13.31545       80.68465       -0.68686
H         12.50749       79.30307        0.14163
N         13.84116       82.47334        4.13648
C         14.17409       82.60184        5.55614
C         13.00016       83.15586        6.35446
O         13.14349       83.28840        7.56277
C         15.40854       83.50707        5.74854
C         16.69312       83.03322        5.04906
C         17.20325       81.71490        5.56578
O         16.57182       80.68760        5.38399
O         18.38286       81.65711        6.20989
H         13.63262       83.33745        3.61796
H         14.39023       81.61240        6.00849
H         15.63123       83.60359        6.83524
H         15.15710       84.51648        5.36454
H         17.46794       83.80554        5.24613
H         16.54487       82.97292        3.95023
N         11.80730       83.47947        5.77112
C         10.67167       83.98955        6.51263
H          9.81119       83.30050        6.38186
H         10.87865       84.08669        7.59892
H         10.39563       84.98928        6.11777
H         11.66946       83.36154        4.75840
Ca        20.85803       80.71554        7.69779
O         20.37902       77.45198        7.21665
H         21.11509       76.79035        7.23161
H         19.55240       76.90771        7.24496
O         17.41813       78.97461        7.97277
H         17.31126       78.55159        7.08408
H         16.50640       78.97883        8.35847
O         19.91863       79.27844        4.83987
H         18.96563       79.05191        4.98359
H         19.92411       79.81344        4.00694
O         23.64293       79.43322        7.77174
H         23.53667       78.61388        7.22595
H         23.26782       79.19392        8.65623

Ca 1.0



