%chk=apoCaM-CA-Ng.loop2.water3.frame642.chk
%nprocshared=20
%mem=10GB
%nosave
#b3lyp/svp scf=(tight,noincore,xqc) Test 
#IOP(5/87=12) Density=Current Pop=(MK,readradii) iop(6/33=2) iop(6/42=6)

apoCaM-CA-Ng.loop2.water3.frame642 

   -2  1 
C         66.43036       36.25929       20.69510
C         64.98985       36.08407       20.31019
O         64.39241       35.07539       20.65730
H         67.05300       36.35554       19.78042
H         66.54324       37.17823       21.30832
H         66.79374       35.39024       21.28382
N         64.36624       37.04446       19.57431
C         62.97118       36.95622       19.15474
C         62.05572       36.93904       20.36527
O         62.12246       37.85145       21.17664
C         62.62453       38.14418       18.23154
C         61.21754       38.06776       17.69418
O         61.02617       37.96613       16.49308
O         60.16136       38.13364       18.52806
H         64.92019       37.86847       19.29071
H         62.83769       36.02835       18.55381
H         63.33312       38.13084       17.37327
H         62.75582       39.10672       18.77140
N         61.13017       35.94971       20.51537
C         60.20456       35.90071       21.64567
C         60.94780       35.49919       22.91527
O         62.04399       34.97041       22.78989
C         59.10007       34.87828       21.33041
H         61.05401       35.23730       19.77217
H         59.73699       36.90201       21.75304
H         59.53731       33.86654       21.18860
H         58.33120       34.81009       22.11733
H         58.58390       35.17392       20.39188
N         60.44681       35.63990       24.17985
C         59.18325       36.27868       24.55167
C         59.19187       37.79468       24.34146
O         60.19999       38.36569       23.94861
C         58.83755       35.93232       26.03122
C         59.79766       36.44751       27.07510
O         59.56215       36.18163       28.37356
O         60.78095       37.09947       26.77016
H         61.01905       35.23763       24.93981
H         58.36286       35.84499       23.95650
H         58.78733       34.82668       26.12758
H         57.83093       36.32005       26.28743
N         58.07429       38.50697       24.65878
C         57.96419       39.95656       24.65250
C         57.83427       40.56544       23.27437
O         58.00248       39.85913       22.29070
H         57.25157       37.99431       25.00743
H         58.78736       40.42123       25.23570
H         57.01362       40.18170       25.16782
N         57.44894       41.86849       23.09664
C         57.14279       42.81573       24.17387
C         57.90231       44.13880       24.03409
O         57.68992       45.00460       24.87229
C         55.62048       43.10440       24.17481
C         54.79944       41.88544       24.52684
N         53.90913       41.36432       23.65102
O         54.92497       41.37559       25.63041
H         57.28996       42.18807       22.12739
H         57.41319       42.40634       25.16823
H         55.32522       43.50126       23.17891
H         55.37684       43.87864       24.93481
H         53.77497       41.78072       22.71884
H         53.34913       40.53718       23.90822
N         58.77219       44.39572       23.01062
C         59.39341       45.70075       22.80732
C         60.40190       46.13179       23.86037
O         60.88514       47.25016       23.74043
H         58.95011       43.68160       22.29254
H         58.58524       46.46433       22.75214
H         59.91927       45.70197       21.82896
N         60.76665       45.34511       24.91381
C         61.67246       45.78966       25.97655
C         62.86004       44.85203       26.13889
O         62.95123       43.85318       25.43600
C         60.87675       45.86721       27.30765
C         59.81569       46.96976       27.25620
O         60.27748       44.62335       27.57400
H         60.35715       44.40339       25.00280
H         62.08958       46.79857       25.76065
H         61.56384       46.13156       28.14015
H         59.97953       44.63917       28.52052
H         59.07580       46.78062       26.45297
H         59.28353       47.02207       28.22944
H         60.30504       47.95162       27.07700
N         63.78305       45.09974       27.11453
C         64.82894       44.16886       27.50742
C         64.39401       43.55816       28.82753
O         64.25977       44.26305       29.81921
C         66.21383       44.87658       27.61712
C         67.26730       43.96263       28.30792
C         66.68668       45.31276       26.21754
C         68.60650       44.65152       28.57569
H         63.67440       45.94335       27.69787
H         64.91984       43.34761       26.76154
H         66.08869       45.77889       28.25574
H         67.42945       43.04259       27.71404
H         66.89151       43.65587       29.30633
H         66.85700       44.42352       25.57274
H         65.93073       45.96328       25.73157
H         67.62961       45.89262       26.27181
H         69.12150       44.93008       27.63565
H         68.44978       45.55904       29.19778
H         69.27088       43.95687       29.13296
N         64.14913       42.22518       28.88311
C         63.73486       41.48257       30.05905
C         64.78651       40.44828       30.46739
O         64.49553       39.67479       31.36891
C         62.32945       40.87787       29.81428
C         62.18417       40.22032       28.47035
O         61.36961       40.65801       27.67214
O         62.99006       39.21513       28.09414
H         64.24908       41.68297       28.02000
H         63.62998       42.14578       30.94584
H         61.59578       41.71488       29.84513
H         62.05946       40.17476       30.63013
N         66.06918       40.46896       29.97429
C         67.14620       39.67479       30.56426
C         68.00599       38.98645       29.49081
O         69.16899       39.34485       29.35828
C         68.00337       40.62193       31.44727
C         68.91199       39.85052       32.37979
C         70.30683       39.85139       32.21025
C         68.35315       39.12622       33.44978
C         71.12308       39.12672       33.08740
C         69.17274       38.41680       34.33125
C         70.55678       38.41286       34.14779
H         66.33820       41.18135       29.28159
H         66.73248       38.90700       31.24968
H         67.34971       41.25354       32.08870
H         68.57200       41.31878       30.79178
H         70.76166       40.39902       31.39493
H         67.28171       39.12264       33.60962
H         72.19604       39.11872       32.94702
H         68.73379       37.87082       35.15691
H         71.18946       37.85812       34.82894
N         67.54749       37.96553       28.69993
C         68.41599       37.21081       27.79446
C         68.98586       37.97624       26.60893
O         69.78157       37.40367       25.87694
C         67.52633       36.06722       27.30506
C         66.61539       35.85991       28.50064
C         66.27381       37.30320       28.86303
H         69.25021       36.80763       28.41315
H         66.88342       36.43330       26.47122
H         68.08354       35.17131       26.95672
H         65.73949       35.20730       28.31315
H         67.22079       35.41755       29.32553
H         65.55923       37.72888       28.12451
H         65.85060       37.35659       29.88591
N         68.61415       39.25716       26.33835
C         69.16975       40.03957       25.23895
C         70.63744       40.27388       25.51736
O         71.46026       39.97060       24.66500
C         68.43028       41.39007       25.07171
C         67.00426       41.24862       24.49340
C         66.08722       40.43296       25.34882
O         65.58285       39.41025       24.91615
O         65.83411       40.81551       26.60746
H         67.92926       39.70318       26.95579
H         69.05648       39.49672       24.27287
H         68.98976       42.01129       24.33785
H         68.41963       41.94113       26.03241
H         67.06609       40.78637       23.48425
H         66.55869       42.25980       24.37867
N         71.03363       40.76210       26.72703
C         72.41973       40.95157       27.09879
H         73.11649       40.72907       26.26384
H         72.57398       42.00159       27.42063
H         72.66300       40.27580       27.94636
H         70.32114       40.97148       27.44245
Ca        62.87027       38.73582       25.89736
O         63.49910       37.30794       23.55251
H         64.05864       36.49792       23.45791
H         64.00480       38.01767       23.08469
O         64.06283       36.20781       26.29703
H         63.72314       35.77725       27.12059
H         64.54896       35.49298       25.81592
O         62.42460       41.21466       24.07498
H         63.37219       41.32775       24.33957
H         61.91297       41.38840       24.90493

Ca 1.0



