%chk=apoCaM-CA-Ng.loop4.water4.frame460.chk
%nprocshared=20
%mem=10GB
%nosave
#b3lyp/svp scf=(tight,noincore,xqc) Test 
#IOP(5/87=12) Density=Current Pop=(MK,readradii) iop(6/33=2) iop(6/42=6)

apoCaM-CA-Ng.loop4.water4.frame460 

   -3  1 
C         37.25560       45.22785       91.34270
C         37.05391       44.21134       92.41099
O         37.90245       43.34609       92.53052
H         38.19955       45.01729       90.79245
H         36.40573       45.19715       90.63327
H         37.33270       46.22788       91.81482
N         35.94916       44.26470       93.22019
C         35.65059       43.37805       94.34528
C         36.85578       42.47523       94.73250
O         36.62374       41.12586       94.50773
C         34.28251       42.66018       94.14134
C         34.11842       41.87940       92.86250
O         35.01723       41.80779       92.04153
O         32.93715       41.28380       92.60322
H         35.25760       45.00628       93.03363
H         35.48453       44.02820       95.23225
H         33.48624       43.43682       94.13233
H         34.07631       41.98915       95.00203
N         37.42469       42.83552       96.05486
C         38.54583       42.08154       96.68127
C         37.98477       41.06449       97.66627
O         38.20498       41.21404       98.86070
C         39.63158       41.53844       95.69203
C         40.71931       40.67538       96.39457
C         40.30489       42.69599       94.92636
C         41.53392       41.38125       97.48506
H         37.74974       43.82364       95.93776
H         39.08559       42.81071       97.32828
H         39.14992       40.86488       94.95807
H         41.42959       40.29446       95.62731
H         40.23260       39.79374       96.85493
H         39.56742       43.27387       94.34331
H         40.79897       43.40440       95.62393
H         41.07080       42.30790       94.22104
H         42.25209       40.65796       97.92660
H         42.11843       42.22818       97.07260
H         40.87955       41.74545       98.30202
N         37.20712       40.03824       97.24912
C         36.55144       39.09075       98.12813
C         37.55102       38.19846       98.84656
O         37.49360       38.17750      100.06772
C         35.50843       38.26667       97.33249
C         34.36924       39.12068       96.81773
O         34.28950       40.43465       97.11256
O         33.49028       38.60975       96.14316
H         37.03469       39.92847       96.25638
H         35.97001       39.64937       98.89915
H         35.06550       37.48574       97.98589
H         35.99466       37.76877       96.46886
N         38.47190       37.39475       98.23264
C         38.77233       37.32170       96.81111
C         38.30774       36.00882       96.22961
O         37.43905       35.38976       96.82885
H         39.03286       36.77403       98.83648
H         39.87021       37.43373       96.69955
H         38.30853       38.12955       96.23457
N         38.79562       35.48186       95.06601
C         39.91155       36.01264       94.26842
C         39.62770       37.41482       93.71913
O         38.49928       37.86058       93.86527
C         40.25550       34.99049       93.15251
C         39.19032       34.85935       92.08956
O         39.46607       35.08842       90.92309
O         37.94287       34.45869       92.40312
H         38.38048       34.58195       94.78235
H         40.78366       36.06705       94.94862
H         40.41724       33.99537       93.61946
H         41.21150       35.24599       92.67261
N         40.53824       38.21490       93.07755
C         41.91642       37.92767       92.69514
C         42.89648       37.76963       93.83028
O         42.52407       37.82693       94.99298
H         40.19581       39.14000       92.78695
H         42.29559       38.78722       92.10767
H         41.96064       37.06842       92.00642
N         44.21580       37.59659       93.51938
C         45.28155       37.43202       94.50388
C         46.26609       38.60041       94.50086
O         47.05916       38.67835       95.42968
C         45.92068       36.02813       94.36437
C         46.44204       35.63296       92.96732
C         47.70208       36.33286       92.56587
N         48.84080       36.13743       93.26539
O         47.71288       37.03734       91.57161
H         44.47140       37.58703       92.52101
H         44.83823       37.46289       95.52379
H         45.10915       35.30455       94.59342
H         46.71156       35.88396       95.13181
H         45.65086       35.78109       92.20400
H         46.67373       34.54716       92.96884
H         48.85844       35.51763       94.08656
H         49.71663       36.57815       92.96851
N         46.20771       39.59869       93.56828
C         46.88873       40.88541       93.71736
C         47.91878       41.17288       92.62983
O         48.50932       42.24234       92.68216
C         45.81582       42.02258       93.78316
C         44.91042       41.84914       95.01374
C         44.94250       42.11606       92.51473
H         45.58428       39.49134       92.75981
H         47.45905       40.91858       94.67222
H         46.34201       42.99612       93.89904
H         44.17846       42.68294       95.07695
H         44.34545       40.89351       94.96531
H         45.52195       41.85703       95.94067
H         44.31495       41.21199       92.37380
H         44.25027       42.97963       92.60051
H         45.56763       42.26466       91.60998
N         48.19804       40.29032       91.62683
C         49.14459       40.58509       90.55310
C         48.44576       40.62671       89.20549
O         49.13827       40.88263       88.22587
C         50.27471       39.52814       90.47099
C         51.08256       39.34137       91.72954
N         51.71589       40.37372       92.32842
O         51.20125       38.22153       92.19612
H         47.70574       39.39410       91.59786
H         49.61540       41.57968       90.70702
H         50.98565       39.83919       89.67319
H         49.84277       38.54682       90.17150
H         51.64878       41.32921       91.95402
H         52.27824       40.20894       93.17741
N         47.10609       40.39159       89.04412
C         46.50582       40.33830       87.71576
C         44.98350       40.34176       87.70723
O         44.34056       39.88179       88.64228
C         47.04454       39.10808       86.92354
C         46.94844       37.79670       87.69583
C         48.12907       37.12616       88.07072
C         45.71199       37.22879       88.05859
C         48.07440       35.93807       88.80610
C         45.65957       36.04649       88.80430
C         46.83758       35.39946       89.18432
O         46.76972       34.26852       89.91593
H         46.50220       40.23895       89.86532
H         46.79469       41.27403       87.18640
H         48.11238       39.29530       86.69109
H         46.53708       39.01971       85.94134
H         49.09892       37.52625       87.80356
H         44.78121       37.68841       87.77450
H         48.99447       35.44400       89.09243
H         44.69974       35.63469       89.09128
H         47.56214       33.80559       90.22383
N         44.35812       40.83587       86.59821
C         42.93747       40.75366       86.27402
C         41.97394       41.44225       87.22688
O         40.79412       41.43488       86.89859
C         42.52299       39.29486       85.99842
C         43.31196       38.72094       84.80923
C         42.84937       37.33747       84.46657
O         42.96028       36.34449       85.36857
O         42.37999       37.10340       83.36394
H         44.95274       41.25089       85.86292
H         42.79494       41.29420       85.30954
H         41.44605       39.27576       85.71828
H         42.65798       38.67125       86.90693
H         44.39474       38.68706       85.04189
H         43.16672       39.38133       83.92382
N         42.35670       42.12685       88.34600
C         41.40099       42.93165       89.10614
C         41.60362       44.40506       88.77774
O         40.84209       45.22511       89.27144
C         41.47798       42.65846       90.63032
C         41.47726       41.16319       90.99497
C         40.37473       40.36299       90.34729
O         40.65728       39.66291       89.38907
O         39.10235       40.32130       90.79284
H         43.35126       42.19235       88.60187
H         40.36117       42.68879       88.79604
H         40.62992       43.17414       91.13215
H         42.42129       43.08910       91.02971
H         41.49302       41.01927       92.09543
H         42.43886       40.76103       90.60837
N         42.58495       44.81723       87.91643
C         42.75759       46.19742       87.53171
H         43.61791       46.28297       86.83161
H         41.84580       46.55695       87.01035
H         42.96064       46.82072       88.42573
H         43.23758       44.14584       87.48894
Ca        37.93821       40.65810       92.70141
O         34.69691       38.87944       90.53898
H         33.92640       38.60664       91.09679
H         34.57377       39.85256       90.41448
O         35.57279       38.20819       93.34801
H         34.75881       38.68133       93.65384
H         35.32072       37.25064       93.35056
O         36.88115       41.10621       89.32306
H         37.61395       40.66904       88.82128
H         36.06537       40.84915       88.82738
O         37.58976       37.93840       90.41541
H         38.40505       38.04034       89.86368
H         37.64641       37.01649       90.76749

Ca 1.0



