%chk=apoCaM-CA-Ng.loop4.water4.frame952.chk
%nprocshared=20
%mem=10GB
%nosave
#b3lyp/svp scf=(tight,noincore,xqc) Test 
#IOP(5/87=12) Density=Current Pop=(MK,readradii) iop(6/33=2) iop(6/42=6)

apoCaM-CA-Ng.loop4.water4.frame952 

   -3  1 
C         86.48241      102.25272       54.49315
C         86.63560      103.72858       54.28535
O         86.52074      104.17023       53.15154
H         85.47291      101.93449       54.15899
H         87.24959      101.71696       53.89460
H         86.61047      101.97768       55.56047
N         86.90339      104.55860       55.33802
C         87.10858      106.00088       55.20758
C         85.85816      106.72171       54.74234
O         85.95633      107.89403       54.40883
C         88.32928      106.29291       54.30243
C         89.51596      105.54852       54.83635
O         90.06045      104.54975       54.12031
O         89.92817      105.77906       55.96183
H         86.99574      104.15139       56.28083
H         87.35088      106.42189       56.20938
H         88.55535      107.38162       54.28082
H         88.13183      105.97524       53.25826
N         84.63042      106.12211       54.78690
C         83.40468      106.80444       54.40163
C         82.79102      107.33187       55.69570
O         82.45363      106.50031       56.52836
C         82.43821      105.80353       53.67008
C         83.12379      104.85122       52.64988
C         81.25556      106.53302       53.01675
C         83.86550      105.52758       51.50688
H         84.53945      105.18919       55.21522
H         83.66218      107.63042       53.70938
H         82.01837      105.11236       54.43432
H         82.35616      104.17295       52.21797
H         83.84863      104.20341       53.18530
H         80.55620      105.80111       52.56007
H         80.69162      107.11645       53.77330
H         81.60620      107.21651       52.21565
H         83.19020      106.16301       50.90014
H         84.69325      106.12394       51.91879
H         84.30739      104.75269       50.84474
N         82.68003      108.65463       56.03359
C         82.99139      109.81525       55.19514
C         83.01479      111.08490       56.04483
O         82.11424      111.27776       56.85136
C         81.92360      109.95518       54.09881
C         82.09740      111.18949       53.26736
O         81.09383      112.08237       53.20341
O         83.12938      111.38539       52.64532
H         82.34178      108.83865       56.99222
H         83.99590      109.70183       54.73438
H         80.91685      109.98494       54.57005
H         81.96744      109.09311       53.42060
N         84.01007      112.01123       55.88950
C         84.12259      113.19479       56.73157
C         83.99699      114.52207       56.00806
O         84.06260      115.52714       56.70251
H         84.73034      111.86113       55.16614
H         85.11485      113.16844       57.23273
H         83.35166      113.18859       57.52904
N         83.86115      114.64116       54.65179
C         83.86465      115.95108       53.99349
C         82.82742      116.13300       52.88725
O         82.70668      117.25839       52.42621
C         85.29792      116.27670       53.51067
C         85.97430      115.15484       52.76210
O         85.53057      114.73576       51.70998
O         87.09207      114.59997       53.26767
H         83.89922      113.79405       54.06855
H         83.60268      116.74439       54.72965
H         85.91393      116.46659       54.41575
H         85.30403      117.21120       52.90729
N         82.03706      115.13034       52.40491
C         81.06734      115.34349       51.33066
C         81.70003      115.70394       49.98861
O         80.96206      116.00899       49.06352
H         82.10727      114.19434       52.81074
H         80.37263      116.15576       51.63978
H         80.46349      114.42219       51.18124
N         83.05286      115.68096       49.80718
C         83.76238      116.07176       48.59232
C         83.49628      115.15525       47.40703
O         83.87554      115.50804       46.29787
C         83.58011      117.57675       48.28983
C         84.06361      118.41845       49.48591
C         84.04849      119.89554       49.20672
N         83.30714      120.73569       49.96690
O         84.73611      120.34451       48.30209
H         83.64095      115.38252       50.58245
H         84.85291      115.94849       48.78178
H         82.52240      117.81737       48.05189
H         84.20560      117.83445       47.40714
H         85.10536      118.13299       49.75034
H         83.41758      118.20409       50.35391
H         82.72988      120.38027       50.74340
H         83.31705      121.75001       49.78522
N         82.99286      113.90028       47.58766
C         82.87943      112.90626       46.52157
C         83.79010      111.70121       46.77889
O         83.79052      110.78910       45.96605
C         81.40082      112.43118       46.38591
C         80.87923      111.71829       47.65184
C         80.47615      113.60234       46.03241
H         82.72816      113.60825       48.53873
H         83.19402      113.34104       45.54696
H         81.34827      111.70122       45.54756
H         80.85586      112.39769       48.52865
H         79.84591      111.34881       47.48308
H         81.51024      110.83941       47.89957
H         80.47024      114.36162       46.84265
H         80.81188      114.08359       45.09003
H         79.43708      113.23714       45.88599
N         84.52683      111.59713       47.92582
C         85.18005      110.37148       48.35613
C         86.58035      110.63339       48.89982
O         86.77110      111.56847       49.66221
C         84.30788      109.78728       49.48193
C         84.97765      108.62279       50.15604
N         85.32623      108.71373       51.45914
O         85.24850      107.61673       49.51742
H         84.50731      112.35595       48.61748
H         85.21962      109.60414       47.55035
H         83.32353      109.47294       49.07052
H         84.12050      110.58262       50.23420
H         85.11350      109.55925       52.00811
H         85.83932      107.95131       51.91560
N         87.56599      109.71983       48.65729
C         88.88395      109.73799       49.29374
C         89.68690      108.55645       48.77833
O         89.19709      107.43784       48.87217
C         88.78232      109.59379       50.83760
C         90.14970      109.73648       51.47027
C         90.80350      110.98043       51.44077
C         90.78858      108.64101       52.07714
C         92.07343      111.12759       52.00302
C         92.06578      108.78857       52.63129
C         92.71183      110.03007       52.59651
O         93.94230      110.15726       53.13350
H         87.34200      108.93927       48.02090
H         89.39062      110.69415       49.04195
H         88.33612      108.60245       51.07710
H         88.12372      110.36041       51.29304
H         90.32639      111.83911       50.98468
H         90.30900      107.67082       52.10760
H         92.56047      112.09450       51.97321
H         92.55613      107.93684       53.08566
H         94.42213      110.99829       53.12607
N         90.93339      108.71976       48.25167
C         91.68925      107.60539       47.69874
C         92.91872      107.31615       48.54667
O         93.85241      108.10378       48.47891
C         92.09501      107.94837       46.24569
C         92.95840      106.86988       45.56795
C         93.39482      107.32032       44.20369
O         92.56834      107.55442       43.33676
O         94.70588      107.47187       43.93211
H         91.35898      109.65878       48.24610
H         91.04739      106.71763       47.65225
H         92.67685      108.89736       46.25943
H         91.17521      108.11942       45.64428
H         92.39296      105.91987       45.47944
H         93.87180      106.68280       46.17272
N         93.05693      106.21912       49.35629
C         91.99657      105.28578       49.76175
C         91.37861      104.50401       48.61792
O         91.96175      104.41303       47.54726
C         92.55498      104.25278       50.77019
C         93.07558      104.86624       52.08108
C         93.85319      103.83239       52.84647
O         95.02233      104.03610       53.13351
O         93.28695      102.65802       53.17656
H         93.98456      106.10610       49.79123
H         91.19184      105.88369       50.24520
H         93.38479      103.71386       50.25975
H         91.77430      103.50456       51.03833
H         92.21997      105.24111       52.68093
H         93.75401      105.72272       51.89666
N         90.15185      103.93232       48.79602
C         89.43954      103.20329       47.76700
H         88.47875      103.71941       47.55322
H         90.01636      103.13175       46.82212
H         89.21726      102.17781       48.12887
H         89.67574      104.04231       49.70509
Ca        91.47290      103.15760       55.18922
O         93.07509      105.71206       55.53439
H         92.52350      105.93077       56.32634
H         93.96377      106.09554       55.73977
O         91.26366      103.37001       58.14520
H         90.41437      103.86940       58.24349
H         91.96765      104.06496       58.18867
O         90.48333      101.14336       53.03272
H         90.19359      101.52039       52.16433
H         91.34464      100.69667       52.83476
O         94.41408      102.68134       56.17079
H         94.89059      103.54152       56.28527
H         94.87673      102.24078       55.41439

Ca 1.0



