%chk=apoCaM-CA-Ng.loop3.water3.frame601.chk
%nprocshared=20
%mem=10GB
%nosave
#b3lyp/svp scf=(tight,noincore,xqc) Test 
#IOP(5/87=12) Density=Current Pop=(MK,readradii) iop(6/33=2) iop(6/42=6)

apoCaM-CA-Ng.loop3.water3.frame601 

   0  1 
C         64.72009       31.00443       79.28899
C         65.20348       32.40655       79.51799
O         65.60449       33.05749       78.56369
H         63.86481       31.01959       78.58106
H         65.53962       30.39144       78.86099
H         64.38137       30.53242       80.23568
N         65.17308       32.95014       80.76593
C         65.58374       34.32101       81.04039
C         67.08070       34.47222       80.78075
O         67.85978       33.77725       81.41949
C         65.23972       34.66851       82.50477
C         65.29588       36.13086       82.82574
O         65.13833       36.49501       83.97965
O         65.47749       37.05411       81.86684
H         64.80329       32.37571       81.53979
H         64.98526       34.98430       80.38125
H         65.91735       34.10163       83.17881
H         64.20648       34.35404       82.72897
N         67.55339       35.32397       79.82515
C         68.97721       35.41280       79.48169
C         69.84443       35.92351       80.62426
O         71.02846       35.61749       80.63734
C         69.19473       36.27110       78.21434
C         68.88790       37.76193       78.43942
C         68.85846       38.54064       77.12142
C         68.55028       40.02345       77.37524
N         68.33851       40.74080       76.11993
H         66.86751       35.86739       79.28016
H         69.30820       34.38021       79.22759
H         68.53336       35.86225       77.41912
H         70.24635       36.17695       77.86254
H         69.64598       38.19890       79.12598
H         67.89153       37.86317       78.90674
H         68.05735       38.10581       76.48411
H         69.83006       38.44960       76.58868
H         69.38692       40.48760       77.94338
H         67.63171       40.11662       77.98633
H         68.12868       41.74310       76.33184
H         69.19199       40.68526       75.51961
H         67.51973       40.33050       75.61320
N         69.33838       36.75999       81.57539
C         70.12344       37.30674       82.68063
C         69.57615       36.84761       84.03107
O         70.15427       37.22039       85.04280
C         70.25104       38.84776       82.52087
C         68.93500       39.54913       82.35850
O         68.04824       39.58598       83.36099
O         68.62556       40.01438       81.27254
H         68.34833       37.04102       81.50899
H         71.16575       36.92088       82.64963
H         70.83254       39.01835       81.58768
H         70.82363       39.29828       83.35900
N         68.51951       35.97950       84.13237
C         68.06278       35.40895       85.39231
C         67.47527       36.40554       86.36881
O         67.16875       35.99185       87.47810
H         68.05593       35.63212       83.28518
H         68.92704       34.90121       85.87501
H         67.29046       34.63552       85.19208
N         67.32134       37.72530       86.06000
C         66.92904       38.73523       87.03355
C         65.74754       39.56811       86.54579
O         65.36439       39.47228       85.38949
C         68.17496       39.62391       87.25121
C         68.02457       40.67518       88.31470
N         67.80027       40.32639       89.60213
O         68.12162       41.85525       88.01307
H         67.57182       38.05142       85.12254
H         66.64419       38.24859       87.99121
H         68.43329       40.10830       86.28192
H         69.03191       38.97701       87.54135
H         67.72679       39.33545       89.87440
H         67.70402       41.05005       90.32905
N         65.12667       40.42532       87.40533
C         64.08605       41.37069       87.03491
C         62.88202       40.72607       86.39914
O         62.47319       39.65539       86.82697
H         65.41939       40.43151       88.39242
H         64.50551       42.14239       86.35602
H         63.74952       41.89620       87.95449
N         62.21216       41.37980       85.40467
C         61.01961       40.83357       84.76554
C         61.38089       39.65505       83.86924
O         62.54434       39.28843       83.79995
C         60.20400       41.96522       84.06841
C         60.80529       42.64980       82.85690
C         61.19152       44.00134       82.92939
C         60.91891       41.98042       81.62545
C         61.69898       44.65778       81.80350
C         61.41772       42.64139       80.49918
C         61.81712       43.98125       80.58715
O         62.31146       44.62904       79.51367
H         62.53240       42.32288       85.13366
H         60.33568       40.46829       85.56407
H         60.00877       42.72781       84.85553
H         59.20434       41.58630       83.76857
H         61.09844       44.55286       83.85633
H         60.60511       40.95614       81.51831
H         61.99581       45.69677       81.87440
H         61.49302       42.10901       79.56055
H         62.42929       44.19231       78.65950
N         60.41571       39.03123       83.13736
C         60.62630       37.93471       82.19360
C         61.65164       38.28224       81.12478
O         62.83879       38.37002       81.40372
C         60.92646       36.57054       82.87588
C         61.12983       35.48098       81.77862
C         59.75920       36.21195       83.81317
C         61.27576       34.05304       82.29675
H         59.45251       39.39061       83.20834
H         59.64874       37.78960       81.67965
H         61.85583       36.64101       83.48350
H         62.05628       35.71957       81.21298
H         60.27846       35.49205       81.06299
H         59.62030       36.99914       84.58290
H         58.81563       36.10502       83.23493
H         59.95994       35.26547       84.35362
H         61.51927       33.38235       81.44435
H         62.07618       33.98540       83.05555
H         60.32483       33.69904       82.74209
N         61.23161       38.45851       79.84795
C         62.11364       38.71180       78.71859
C         61.25759       39.26530       77.61032
O         60.33186       38.58231       77.18534
C         62.80557       37.41414       78.25358
O         63.57473       36.84099       79.27300
H         60.21287       38.44168       79.68008
H         62.87171       39.47523       78.99980
H         63.43799       37.60671       77.35611
H         62.04033       36.66743       77.95012
H         64.46217       37.27909       79.24949
N         61.45453       40.52553       77.13681
C         60.49594       41.15157       76.24075
C         61.02955       42.47623       75.70050
O         61.38764       43.31374       76.51711
C         59.18134       41.42321       76.99123
H         62.27603       41.06200       77.45895
H         60.26345       40.42395       75.45713
H         58.43957       41.87848       76.30105
H         58.73851       40.48699       77.38841
H         59.35237       42.11308       77.84561
N         61.08343       42.81111       74.37407
C         60.62671       41.98883       73.25589
C         59.36929       42.59811       72.64899
O         59.08184       43.74938       72.94270
C         61.75852       41.85091       72.23416
H         61.42378       43.75820       74.14186
H         60.36233       40.98843       73.58499
H         62.06111       42.85041       71.85570
H         62.63833       41.37481       72.71884
H         61.45801       41.22505       71.37059
N         58.50109       41.90059       71.85165
C         58.62545       40.49506       71.46936
C         57.50531       39.62933       72.03988
O         57.56689       38.42345       71.84938
C         58.70635       40.33539       69.93060
C         57.41251       40.63594       69.14129
C         56.99860       42.07725       69.16534
O         55.79266       42.42435       69.65577
O         57.74732       42.94029       68.73574
H         57.66579       42.41302       71.54037
H         59.56278       40.06993       71.86715
H         58.95575       39.27070       69.72559
H         59.54608       40.94742       69.53597
H         56.58565       40.00034       69.52575
H         57.58173       40.35848       68.07951
N         56.45113       40.15622       72.73343
C         55.36484       39.34986       73.25707
H         54.41126       39.67281       72.78848
H         55.49890       38.26630       73.05555
H         55.29289       39.49463       74.35494
H         56.38499       41.16903       72.89564
Ca        66.01710       39.08497       82.61649
O         65.41116       42.07433       83.79423
H         65.26877       42.93499       83.32609
H         66.16823       42.24696       84.40755
O         65.69105       39.63621       79.52553
H         65.52581       39.26491       78.62330
H         66.22720       38.94618       79.98734
O         64.04765       41.09145       81.26348
H         63.87807       41.34780       80.32264
H         63.72916       41.86413       81.79091

Ca 1.0



