%chk=holoCaM-CaMKII.loop2.water1.frame353.chk
%nprocshared=20
%mem=10GB
%nosave
#b3lyp/svp scf=(tight,noincore,xqc) Test 
#IOP(5/87=12) Density=Current Pop=(MK,readradii) iop(6/33=2) iop(6/42=6)

holoCaM-CaMKII.loop2.water1.frame353 

   -2  1 
C         28.98599       62.27234       59.59589
C         30.04020       63.25882       60.01892
O         31.19577       63.11253       59.65034
H         28.18276       62.80256       59.03933
H         29.40804       61.48201       58.94075
H         28.53721       61.79492       60.49313
N         29.68277       64.31620       60.79334
C         30.59497       65.36556       61.24502
C         31.66631       64.82156       62.18055
O         31.34632       64.16231       63.15941
C         29.76941       66.48344       61.89575
C         30.56493       67.60416       62.51440
O         31.46355       68.38914       61.85418
O         30.36281       67.82806       63.69627
H         28.68477       64.38905       61.05006
H         31.07655       65.83057       60.37107
H         29.14041       66.02973       62.69615
H         29.08391       66.90236       61.13189
N         32.97487       65.11686       61.93372
C         34.10658       64.67175       62.73387
C         34.83940       65.83756       63.40462
O         35.78408       65.56848       64.13407
C         35.07558       63.91199       61.81188
H         33.18410       65.71139       61.12869
H         33.76495       63.98431       63.53684
H         35.95353       63.53053       62.37477
H         34.56096       63.04878       61.33806
H         35.44422       64.58097       61.00136
N         34.50255       67.14734       63.18532
C         35.26316       68.27708       63.72630
C         34.38296       69.42186       64.26121
O         34.93169       70.43624       64.66822
C         36.27786       68.73189       62.65868
C         35.65797       69.09278       61.33958
O         34.82052       70.13466       61.24489
O         35.92951       68.44861       60.33901
H         33.76574       67.36570       62.50332
H         35.88308       67.94940       64.59021
H         36.97758       67.88275       62.48877
H         36.87820       69.58568       63.03817
N         33.02783       69.30643       64.36066
C         32.14612       70.29789       64.97362
C         31.95314       71.61369       64.23300
O         31.21625       72.43688       64.75893
H         32.60448       68.41500       64.09817
H         32.51529       70.51526       65.99932
H         31.13415       69.85226       65.08025
N         32.56571       71.92000       63.05265
C         32.43780       73.24605       62.43981
C         31.03079       73.58754       61.95045
O         30.76380       74.76715       61.76541
C         33.47567       73.47524       61.31520
C         33.37095       72.54740       60.12658
N         34.19491       72.71735       59.06801
O         32.55959       71.63648       60.11269
H         33.19792       71.23242       62.63265
H         32.68733       73.98375       63.23575
H         34.49573       73.36637       61.74247
H         33.36913       74.52062       60.95156
H         34.89047       73.47746       59.06023
H         34.13268       72.09228       58.25107
N         30.10294       72.63122       61.66276
C         28.74808       72.94085       61.21976
C         28.51177       72.63878       59.75323
O         27.36065       72.67755       59.34240
H         30.36265       71.63767       61.74066
H         28.48948       74.01105       61.37213
H         28.04752       72.34608       61.84474
N         29.54112       72.39390       58.88964
C         29.35845       72.12422       57.46633
C         29.95323       70.78287       57.08727
O         30.80051       70.26024       57.79731
C         29.99486       73.24833       56.61345
C         29.23515       74.56467       56.78491
O         31.33857       73.45199       56.97534
H         30.50273       72.43069       59.24036
H         28.27477       72.06862       57.22177
H         29.92920       72.99137       55.53026
H         31.86558       72.70683       56.58689
H         28.17972       74.43778       56.46064
H         29.25081       74.90001       57.84323
H         29.70004       75.35275       56.15508
N         29.50448       70.14720       55.97016
C         29.98403       68.83561       55.55667
C         31.30435       69.01559       54.84231
O         31.37260       69.77933       53.88839
C         28.92923       68.09999       54.67750
C         27.60287       67.95619       55.47648
C         29.45868       66.71149       54.25921
C         26.47314       67.28170       54.69987
H         28.75889       70.59847       55.41808
H         30.11558       68.19119       56.45671
H         28.73999       68.69716       53.75798
H         27.23187       68.96210       55.76245
H         27.78397       67.38294       56.41267
H         28.74700       66.18907       53.59131
H         30.39736       66.80591       53.68359
H         29.64575       66.07779       55.15260
H         25.55459       67.27995       55.32368
H         26.26755       67.83637       53.76062
H         26.71548       66.22562       54.46698
N         32.39532       68.31367       55.24548
C         33.69954       68.42672       54.60936
C         33.78972       67.37148       53.50570
O         32.85744       66.58868       53.37957
C         34.81652       68.25433       55.67735
C         34.56556       69.00328       56.98143
O         33.49761       68.63275       57.73008
O         35.36837       69.81977       57.40349
H         32.26876       67.60151       55.97510
H         33.79868       69.43923       54.15880
H         35.79659       68.53453       55.23297
H         34.86964       67.18121       55.96321
N         34.84257       67.28595       52.64094
C         34.90729       66.22886       51.62936
C         35.03401       64.83688       52.25315
O         34.30434       63.96543       51.80957
C         36.00045       66.45463       50.56643
C         35.90060       65.41294       49.45753
C         34.72028       65.27925       48.69254
C         36.97995       64.55442       49.18508
C         34.62300       64.30313       47.69588
C         36.87943       63.58411       48.17987
C         35.70157       63.45620       47.43941
H         35.59503       67.99058       52.69089
H         33.95008       66.27146       51.06480
H         37.00124       66.43277       51.04592
H         35.85911       67.45795       50.10986
H         33.86622       65.92038       48.86569
H         37.89848       64.63176       49.75137
H         33.70927       64.20209       47.12260
H         37.71432       62.92657       47.97606
H         35.62384       62.70143       46.66652
N         35.89203       64.52527       53.28193
C         35.95892       63.19798       53.89207
C         34.71448       62.83207       54.70503
O         34.71300       61.75382       55.28502
C         37.23107       63.26647       54.74751
C         37.25055       64.71228       55.17886
C         36.85007       65.42733       53.89295
H         36.10594       62.40436       53.12755
H         37.30576       62.51445       55.56249
H         38.10852       63.13341       54.07402
H         36.43529       64.84620       55.92554
H         38.20212       65.07180       55.62518
H         36.44318       66.40500       54.19346
H         37.70664       65.55691       53.19629
N         33.61160       63.63456       54.76474
C         32.38513       63.29561       55.47883
C         31.20471       63.12269       54.52872
O         30.13771       62.74702       54.99270
C         32.06007       64.41729       56.47033
C         33.23294       64.69105       57.41761
C         32.98820       65.87502       58.28381
O         33.99079       66.32377       59.06009
O         31.92489       66.47593       58.24669
H         33.62448       64.54001       54.29134
H         32.51121       62.33927       56.03128
H         31.14493       64.17291       57.05414
H         31.86008       65.33985       55.88277
H         34.13794       64.93134       56.82507
H         33.43984       63.80457       58.05248
N         31.30654       63.38115       53.19323
C         30.20552       63.20005       52.27633
H         29.34680       63.83464       52.57767
H         30.52221       63.49327       51.25133
H         29.90364       62.13230       52.26064
H         32.18183       63.72581       52.79485
Ca        32.43643       68.72560       59.78613
O         29.42041       69.66353       60.17066
H         29.06776       69.57193       61.09044
H         29.28123       68.77888       59.75028

Ca 1.0



