%chk=holoCaM.loop4.water3.frame138.chk
%nprocshared=20
%mem=10GB
%nosave
#b3lyp/svp scf=(tight,noincore,xqc) Test 
#IOP(5/87=12) Density=Current Pop=(MK,readradii) iop(6/33=2) iop(6/42=6)

holoCaM.loop4.water3.frame138 

   -3  1 
C         19.04599      110.77262      100.43971
C         18.53671      109.99062      101.61546
O         18.11197      108.86288      101.42033
H         19.88539      110.21010       99.97371
H         18.24236      110.90643       99.68816
H         19.43099      111.76739      100.74636
N         18.61364      110.50291      102.87780
C         18.33508      109.72169      104.07699
C         17.42229      110.45718      105.05141
O         17.76073      111.56295      105.45093
C         19.69029      109.43644      104.74080
C         19.54418      108.62181      105.98228
O         19.00302      107.52943      105.93852
O         20.00731      109.10129      107.15139
H         19.01373      111.44586      103.00205
H         17.88232      108.74130      103.81523
H         20.20353      110.39171      104.98668
H         20.33231      108.87936      104.02644
N         16.27959      109.86802      105.52581
C         15.41609      110.47463      106.53828
C         15.31336      109.64686      107.83540
O         14.70677      110.16465      108.76306
C         14.01995      110.85116      105.92937
C         13.19923      109.69498      105.29673
C         14.21299      111.93482      104.84910
C         12.78182      108.57743      106.24173
H         16.01351      108.94828      105.16316
H         15.86696      111.43379      106.87629
H         13.40233      111.31240      106.73184
H         13.75924      109.24844      104.46264
H         12.26056      110.12323      104.87822
H         14.81090      111.54670      103.99615
H         13.23074      112.27646      104.45618
H         14.73067      112.82137      105.27263
H         12.14721      107.85381      105.68550
H         13.66311      108.02274      106.60640
H         12.19559      108.98572      107.09096
N         15.85595      108.39083      107.99976
C         15.74556      107.62642      109.26287
C         17.08664      107.15072      109.83937
O         17.08554      106.61756      110.94018
C         14.79542      106.42113      109.07415
C         15.31167      105.37351      108.12151
O         16.57290      105.43476      107.65519
O         14.56275      104.49527      107.72776
H         16.31380      107.94366      107.19471
H         15.28234      108.27346      110.03859
H         13.83762      106.82222      108.67795
H         14.57550      105.93266      110.04752
N         18.25837      107.28373      109.15804
C         19.55739      106.87412      109.67282
C         19.70719      105.38071      109.90640
O         19.98099      104.99873      111.03517
H         18.24409      107.73301      108.24090
H         19.75508      107.42837      110.61578
H         20.34353      107.16638      108.94392
N         19.61169      104.48441      108.87810
C         19.88846      103.04925      109.02815
C         21.06959      102.60148      108.16023
O         21.95602      101.94195      108.68537
C         18.63164      102.16833      108.83733
C         17.91416      102.20201      107.51882
O         18.24799      102.95156      106.62085
O         16.85747      101.38754      107.33854
H         19.36224      104.84798      107.94734
H         20.18461      102.82647      110.07854
H         17.89044      102.44671      109.61709
H         18.93512      101.11394      109.02323
N         21.18685      102.97703      106.85335
C         22.33211      102.65991      106.00806
C         21.95130      102.25591      104.59064
O         22.85557      102.14189      103.77436
H         20.48977      103.61588      106.46488
H         22.99588      101.89433      106.46616
H         22.92168      103.59554      105.90628
N         20.65697      102.04843      104.20664
C         20.24106      101.77903      102.82900
C         19.21442      102.82036      102.38030
O         18.86434      103.68982      103.16907
C         19.65239      100.35508      102.74631
C         20.72382       99.28807      103.02892
C         20.15299       97.89692      102.94646
N         19.20588       97.48588      103.82138
O         20.56066       97.12662      102.08975
H         19.91205      102.08085      104.91498
H         21.10314      101.84210      102.12794
H         19.26017      100.16496      101.72472
H         18.80834      100.26633      103.46453
H         21.16701       99.42743      104.03757
H         21.53449       99.39726      102.27372
H         18.86314       98.11502      104.56174
H         18.82314       96.53038      103.76708
N         18.67698      102.78291      101.12204
C         17.66064      103.72198      100.64159
C         16.37265      102.95767      100.38826
O         16.42508      101.96992       99.66595
C         18.09737      104.43375       99.32573
C         17.07642      105.52906       98.94899
C         19.49363      105.06437       99.41208
H         18.98106      102.03858      100.47572
H         17.48103      104.49837      101.40287
H         18.13702      103.68127       98.50758
H         17.35431      106.01317       97.99001
H         16.05534      105.11001       98.83297
H         17.04059      106.31567       99.73273
H         19.75411      105.53169       98.43745
H         19.53705      105.85053      100.18478
H         20.26032      104.29325       99.63183
N         15.17731      103.36352      100.91947
C         13.93296      102.61984      100.70723
C         12.90641      103.40398       99.89736
O         13.15713      104.53788       99.52232
C         13.35440      102.08627      102.04252
C         12.53872      103.06229      102.86642
N         13.07524      104.17035      103.42008
O         11.35520      102.82135      103.05540
H         15.15883      104.22811      101.47516
H         14.16066      101.71246      100.10772
H         14.17106      101.64197      102.65006
H         12.66993      101.24781      101.78799
H         14.06618      104.40613      103.30410
H         12.48823      104.79620      103.99125
N         11.73033      102.80434       99.56127
C         10.67561      103.38014       98.72519
C         10.05810      104.64747       99.30847
O          9.95994      105.63002       98.58736
C          9.60343      102.29742       98.41198
C          8.87510      101.74853       99.62106
C          7.76390      102.42417      100.15287
C          9.29759      100.55034      100.22508
C          7.10802      101.92873      101.28300
C          8.64388      100.05925      101.35790
C          7.55100      100.74694      101.89353
O          6.93549      100.26344      102.99101
H         11.60642      101.83643       99.88296
H         11.11808      103.64157       97.73703
H         10.13820      101.46008       97.91029
H          8.86290      102.66636       97.66953
H          7.41046      103.34008       99.69598
H         10.14497      100.00251       99.83177
H          6.25946      102.46720      101.68512
H          8.99134       99.14471      101.82204
H          6.17947      100.71182      103.39587
N          9.59660      104.69526      100.59079
C          8.94303      105.86957      101.17487
C          9.90211      107.04862      101.18178
O          9.58506      108.10239      100.64948
C          8.45306      105.52715      102.60133
C          7.62868      106.65764      103.23211
C          7.09283      106.23827      104.57189
O          5.88797      106.19133      104.76392
O          7.93801      105.91316      105.56888
H          9.71260      103.85513      101.17626
H          8.04270      106.11918      100.56966
H          9.31522      105.27246      103.25696
H          7.79815      104.63015      102.53073
H          6.77782      106.90547      102.55943
H          8.25358      107.56623      103.36272
N         11.13624      106.88436      101.71999
C         12.21385      107.87405      101.70860
C         12.51990      108.39513      100.31711
O         12.90931      109.54947      100.19998
C         13.45299      107.17889      102.28742
C         14.79286      107.90178      102.15481
C         15.79446      107.05780      102.86325
O         16.71546      106.54682      102.26442
O         15.63876      106.83524      104.17173
H         11.33550      105.95327      102.11845
H         11.94612      108.74429      102.34946
H         13.58644      106.21034      101.75598
H         13.22970      106.97504      103.35941
H         14.77840      108.91382      102.59983
H         15.07070      107.99799      101.08353
N         12.40337      107.60376       99.22210
C         12.73897      108.06813       97.89659
H         13.81879      108.32485       97.85496
H         12.53211      107.26816       97.15499
H         12.13177      108.96200       97.64027
H         12.06209      106.64514       99.33060
Ca        16.83415      105.47348      105.45579
O         19.55152      106.52171      103.06010
H         20.49665      106.70534      102.83636
H         19.09649      106.55598      102.18849
O         20.91231      105.67213      105.27907
H         21.13425      105.95870      106.20016
H         21.76481      105.73013      104.78215
O         15.22729      102.77279      104.90609
H         14.86444      103.58303      105.34213
H         16.15494      102.71521      105.23570

Ca 1.0



