%chk=holoCaM.loop4.water3.frame215.chk
%nprocshared=20
%mem=10GB
%nosave
#b3lyp/svp scf=(tight,noincore,xqc) Test 
#IOP(5/87=12) Density=Current Pop=(MK,readradii) iop(6/33=2) iop(6/42=6)

holoCaM.loop4.water3.frame215 

   -3  1 
C         28.54943       62.41518       76.83357
C         29.22861       61.16399       77.30606
O         28.62768       60.41428       78.05982
H         27.52998       62.49847       77.26975
H         29.14121       63.30735       77.12006
H         28.44971       62.37840       75.72725
N         30.48114       60.85359       76.86594
C         31.09145       59.54971       77.09672
C         32.61389       59.62919       77.06746
O         33.16521       60.11401       76.08914
C         30.58063       58.59343       76.00708
C         31.19657       57.23661       76.13289
O         31.81926       56.76321       75.19623
O         31.08219       56.54775       77.28423
H         30.91785       61.48647       76.17785
H         30.76960       59.14249       78.08224
H         30.80649       59.01087       75.00050
H         29.47797       58.49076       76.09923
N         33.35310       59.11144       78.09626
C         34.81956       59.11189       78.12943
C         35.42951       57.70144       78.13772
O         36.64900       57.60853       78.11157
C         35.33118       59.91104       79.37101
C         34.93926       59.22853       80.71472
C         34.82753       61.36372       79.30754
C         35.58030       59.87174       81.94413
H         32.84915       58.69267       78.88924
H         35.21284       59.60837       77.21599
H         36.44221       59.93532       79.31174
H         35.27535       58.16976       80.70680
H         33.84091       59.24160       80.84956
H         33.72076       61.40250       79.40039
H         35.27160       61.97935       80.11459
H         35.12231       61.82651       78.34259
H         35.24483       60.91817       82.07392
H         35.28184       59.30497       82.85223
H         36.68704       59.84560       81.85968
N         34.66571       56.57461       78.24229
C         35.22355       55.22625       78.43155
C         34.65467       54.15779       77.48459
O         35.15657       53.04226       77.51227
C         35.06144       54.78550       79.91062
C         33.65024       54.79979       80.43783
O         32.65010       55.32020       79.70780
O         33.41918       54.37081       81.55614
H         33.65345       56.70306       78.28111
H         36.31803       55.24576       78.23833
H         35.66178       55.45512       80.56291
H         35.47246       53.75746       80.01793
N         33.62644       54.40547       76.62793
C         33.09468       53.43736       75.67513
C         32.54797       52.17199       76.31278
O         32.96865       51.09279       75.92121
H         33.20676       55.33725       76.61850
H         33.88570       53.17266       74.93908
H         32.26542       53.91970       75.11291
N         31.59235       52.22912       77.28328
C         30.97285       51.04362       77.89792
C         29.44454       51.04185       77.75331
O         28.81308       50.13387       78.27600
C         31.40933       50.91916       79.37951
C         30.99438       52.07186       80.24013
O         30.22531       53.03902       79.72248
O         31.41208       52.16353       81.38200
H         31.30658       53.16606       77.60207
H         31.34132       50.11772       77.40522
H         32.52053       50.86693       79.39460
H         31.01760       49.97922       79.82468
N         28.78253       51.99433       77.02985
C         27.33923       51.99421       76.81217
C         26.48648       52.39217       78.01182
O         25.27360       52.40056       77.86608
H         29.32584       52.70654       76.52770
H         27.03194       50.99590       76.43485
H         27.10860       52.73763       76.01789
N         27.03058       52.77200       79.20114
C         26.26767       53.22025       80.36565
C         26.63458       54.66608       80.69909
O         27.49528       55.23503       80.04567
C         26.58803       52.29600       81.56276
C         26.16217       50.84049       81.30593
C         26.60607       49.93991       82.43202
N         25.70773       49.24777       83.17109
O         27.79927       49.82391       82.67092
H         28.04210       52.76445       79.29369
H         25.17523       53.19086       80.16082
H         26.06593       52.64898       82.47868
H         27.68410       52.33663       81.75265
H         26.62520       50.46073       80.37093
H         25.05696       50.80458       81.18598
H         24.69686       49.32452       82.98901
H         26.02661       48.62863       83.93178
N         25.99969       55.32404       81.71369
C         26.28897       56.70401       82.10980
C         26.79508       56.69698       83.54271
O         26.18305       56.06544       84.39220
C         25.02669       57.59369       81.95073
C         25.30322       59.04059       82.40593
C         24.56607       57.61993       80.48354
H         25.26598       54.82435       82.23806
H         27.07507       57.15088       81.46214
H         24.20266       57.18130       82.57350
H         25.58347       59.07405       83.47926
H         26.12736       59.49138       81.81063
H         24.39332       59.66539       82.28112
H         23.65566       58.24743       80.37635
H         25.36062       58.04412       79.83269
H         24.32056       56.59875       80.12542
N         27.91261       57.40462       83.87670
C         28.55061       57.34885       85.18760
C         28.39535       58.66322       85.94094
O         27.84342       59.61417       85.40827
C         30.04739       57.03776       84.93598
C         30.85415       56.66740       86.15000
N         30.56485       55.54390       86.84538
O         31.79691       57.36655       86.49015
H         28.35434       57.99106       83.15669
H         28.08391       56.54628       85.79767
H         30.50951       57.90870       84.41764
H         30.11714       56.18177       84.25332
H         29.79061       54.93018       86.55251
H         31.12875       55.27551       87.66490
N         28.87014       58.76949       87.21533
C         28.90822       60.01021       87.99033
C         29.95819       61.00005       87.45582
O         30.03172       62.10392       87.97671
C         29.16896       59.63573       89.47131
C         29.33476       60.79437       90.42543
C         28.35047       61.78921       90.55587
C         30.49699       60.87297       91.21199
C         28.53650       62.84887       91.45192
C         30.67431       61.92311       92.11249
C         29.69551       62.91754       92.23440
O         29.85802       63.93821       93.09991
H         29.22231       57.91155       87.66235
H         27.90827       60.49510       87.93918
H         30.07837       58.99669       89.51904
H         28.31087       59.01911       89.81893
H         27.44651       61.75167       89.96165
H         31.26628       60.11418       91.13682
H         27.77823       63.61645       91.54060
H         31.57347       61.96010       92.71453
H         30.64302       64.01355       93.66172
N         30.77349       60.69857       86.40276
C         31.73446       61.62341       85.80516
C         31.24845       62.07639       84.42756
O         31.90806       62.90076       83.81150
C         33.10814       60.89514       85.75349
C         34.26223       61.59057       85.00423
C         34.69135       62.92137       85.55736
O         35.59710       63.52780       85.00808
O         34.11093       63.45332       86.64921
H         30.69885       59.77764       85.95507
H         31.81774       62.54648       86.41464
H         32.95969       59.92034       85.23677
H         33.43086       60.67485       86.79478
H         33.98646       61.71096       83.93821
H         35.14313       60.91278       85.03091
N         30.08728       61.60287       83.89120
C         29.59383       61.94139       82.56607
C         28.21278       62.58802       82.62927
O         27.69772       62.93582       81.57541
C         29.50997       60.63546       81.75236
C         30.86441       59.90127       81.68725
C         30.74917       58.52448       81.09762
O         31.73846       57.81576       81.02954
O         29.56360       58.03663       80.69230
H         29.53053       60.92157       84.41064
H         30.28259       62.64940       82.05553
H         29.14513       60.83584       80.72212
H         28.76927       59.98375       82.25898
H         31.27237       59.76065       82.71007
H         31.58530       60.50928       81.09916
N         27.54233       62.76960       83.80857
C         26.21545       63.34742       83.89300
H         25.52147       62.60461       84.34104
H         26.24539       64.24566       84.54431
H         25.81412       63.64412       82.90177
H         27.96235       62.48064       84.70234
Ca        30.50626       55.15774       80.22462
O         27.91641       57.50722       78.30744
H         27.76322       58.22327       78.97065
H         27.01048       57.15637       78.12058
O         30.21857       54.28986       82.80046
H         30.42718       53.64999       83.52335
H         31.04701       54.82608       82.70454
O         28.72683       55.11467       76.94045
H         27.88266       55.42682       76.53132
H         29.34325       55.00814       76.17300

Ca 1.0



