%chk=holoCaM.loop3.water3.frame195.chk
%nprocshared=20
%mem=10GB
%nosave
#b3lyp/svp scf=(tight,noincore,xqc) Test 
#IOP(5/87=12) Density=Current Pop=(MK,readradii) iop(6/33=2) iop(6/42=6)

holoCaM.loop3.water3.frame195 

   0  1 
C         24.34537       46.36892       78.08686
C         25.84013       46.43837       78.01443
O         26.44592       45.62882       77.32577
H         24.02672       46.21317       79.13768
H         23.91535       47.32201       77.71088
H         23.95926       45.53634       77.46099
N         26.50591       47.42090       78.68074
C         27.94629       47.59400       78.57269
C         28.68797       46.43329       79.20881
O         28.49522       46.15962       80.38542
C         28.37531       48.94023       79.17329
C         29.79439       49.30345       78.82983
O         30.58256       48.49334       78.08924
O         30.23957       50.36758       79.22132
H         25.95495       48.10578       79.22232
H         28.18250       47.64243       77.49596
H         28.23485       48.93111       80.27672
H         27.73305       49.74052       78.74484
N         29.54855       45.69596       78.45473
C         30.22483       44.49238       78.92713
C         31.16533       44.74149       80.11157
O         31.48982       43.77816       80.79160
C         30.91656       43.82889       77.71531
C         31.46306       42.41571       77.93769
C         31.89168       41.82723       76.58175
C         32.39077       40.38494       76.70470
N         32.70066       39.83372       75.38424
H         29.66878       45.97082       77.46857
H         29.42013       43.80750       79.27742
H         31.72341       44.48963       77.33247
H         30.13732       43.74721       76.92304
H         30.65690       41.77808       78.36125
H         32.32065       42.43779       78.64349
H         32.69002       42.45736       76.13106
H         31.01263       41.83120       75.89849
H         31.60353       39.75896       77.18053
H         33.30015       40.35919       77.34429
H         33.44065       40.40551       74.91586
H         33.04466       38.85256       75.49188
H         31.83939       39.82275       74.78950
N         31.61773       45.99120       80.44229
C         32.37502       46.27732       81.66570
C         31.90284       47.56044       82.35937
O         31.66928       47.50654       83.55929
C         33.91221       46.16507       81.50279
C         34.60734       47.11304       80.57432
O         35.82227       47.06459       80.46984
O         33.92854       47.99816       79.84158
H         31.39495       46.77065       79.81317
H         32.17775       45.46085       82.39875
H         34.15493       45.13529       81.16177
H         34.36375       46.30333       82.51052
N         31.69355       48.73039       81.67881
C         31.21775       49.96182       82.30614
C         32.06944       51.18892       81.99272
O         31.73233       52.25625       82.48370
H         31.81069       48.74360       80.66055
H         31.15598       49.84952       83.40996
H         30.19204       50.16792       81.93408
N         33.17322       51.13019       81.19096
C         34.04090       52.27914       80.89872
C         33.34580       53.42943       80.14863
O         33.93301       54.50096       80.08406
C         35.29792       51.79146       80.10701
C         35.01365       51.35526       78.64044
N         35.34147       52.43415       77.71721
O         33.65180       51.08738       78.53728
H         33.45113       50.21679       80.81802
H         34.38348       52.66121       81.88582
H         35.71244       50.91674       80.65347
H         36.09471       52.56635       80.11982
H         36.36755       52.62383       77.77714
H         35.15789       52.09237       76.74936
N         32.13321       53.28063       79.52707
C         31.41977       54.35875       78.84793
C         31.21672       54.15112       77.34601
O         30.50683       54.95113       76.75817
H         31.66987       52.36382       79.54368
H         31.93090       55.33641       78.98178
H         30.42074       54.44221       79.32847
N         31.83457       53.14995       76.64890
C         31.70673       52.94324       75.20306
C         31.29556       51.51341       74.90065
O         31.92509       50.60290       75.41457
C         33.05352       53.15158       74.48048
C         33.54364       54.57668       74.44586
C         34.00524       55.22703       75.60203
C         33.57397       55.26018       73.21694
C         34.49308       56.53710       75.52396
C         34.05398       56.56692       73.14295
C         34.52012       57.20997       74.29613
O         34.99952       58.46829       74.23316
H         32.46536       52.52336       77.15008
H         30.97772       53.64615       74.74394
H         32.89756       52.82338       73.42723
H         33.84216       52.49593       74.89972
H         34.00723       54.72024       76.55770
H         33.22580       54.78173       72.30941
H         34.85814       57.02758       76.41716
H         34.06806       57.07389       72.18618
H         35.04224       58.95878       73.39933
N         30.31589       51.24521       73.98395
C         29.98695       49.88445       73.56000
C         30.24659       49.69913       72.06726
O         29.59102       50.32353       71.24825
C         28.53610       49.49789       73.97593
C         27.44082       50.43708       73.39777
C         28.47198       49.45430       75.50751
C         26.01509       50.01007       73.75330
H         29.81801       52.03094       73.54293
H         30.65081       49.15807       74.07527
H         28.34828       48.46384       73.60668
H         27.48913       50.43610       72.29341
H         27.59261       51.47700       73.75639
H         27.49781       49.06248       75.85600
H         29.25818       48.76812       75.88076
H         28.63767       50.45958       75.94926
H         25.82353       48.97485       73.39962
H         25.82942       50.07134       74.84420
H         25.29448       50.69505       73.25927
N         31.21797       48.83545       71.64357
C         31.44716       48.51998       70.23418
C         30.30325       47.67411       69.68492
O         29.39932       47.33218       70.43167
C         32.78154       47.75889       70.07416
O         32.74211       46.54177       70.76674
H         31.81321       48.38134       72.34892
H         31.53910       49.46700       69.65829
H         33.60714       48.38611       70.47678
H         32.97890       47.57047       68.99530
H         33.55962       46.04367       70.50527
N         30.29580       47.26735       68.38493
C         29.29453       46.35261       67.84019
C         29.37004       45.00380       68.53573
O         28.34768       44.50492       68.98281
C         29.51435       46.15378       66.33746
H         31.04934       47.59935       67.76341
H         28.27661       46.78744       67.96274
H         29.42939       47.12932       65.81344
H         30.51593       45.72017       66.13210
H         28.73690       45.47194       65.92882
N         30.57340       44.37692       68.68521
C         30.75239       43.08387       69.34268
C         30.11542       43.06176       70.71837
O         29.34729       42.15017       70.99380
C         32.24684       42.75491       69.45418
H         31.41302       44.86371       68.33441
H         30.28004       42.28899       68.72309
H         32.70651       42.72673       68.44299
H         32.77522       43.51936       70.06347
H         32.38813       41.75981       69.92795
N         30.34871       44.06135       71.61424
C         29.71610       44.11900       72.93040
C         28.20368       44.06287       72.78735
O         27.59750       43.14901       73.32914
C         30.14427       45.39423       73.69428
C         31.64198       45.36993       74.04566
C         32.05267       46.60778       74.78652
O         32.94098       47.32041       74.34977
O         31.46274       46.92619       75.95040
H         30.96880       44.82903       71.32280
H         30.03705       43.23694       73.53013
H         29.56960       45.45281       74.64563
H         29.90730       46.29747       73.08885
H         32.25841       45.28077       73.12763
H         31.85000       44.48990       74.68974
N         27.53632       44.98314       72.03863
C         26.10654       44.94838       71.80680
H         25.65018       45.89266       72.16832
H         25.91732       44.85334       70.71614
H         25.61339       44.09563       72.31852
H         28.06550       45.73525       71.58580
Ca        32.70780       49.17718       77.81763
O         34.65655       49.85213       74.91251
H         34.41634       49.61190       73.98295
H         35.40463       50.49314       74.81834
O         34.04475       45.92151       77.48092
H         34.12241       45.24651       76.76111
H         34.83902       45.76545       78.05016
O         35.82683       48.50239       77.20212
H         36.31449       47.77044       76.74776
H         36.26421       48.58389       78.08612

Ca 1.0



