%chk=holoCaM.loop2.water2.frame166.chk
%nprocshared=20
%mem=10GB
%nosave
#b3lyp/svp scf=(tight,noincore,xqc) Test 
#IOP(5/87=12) Density=Current Pop=(MK,readradii) iop(6/33=2) iop(6/42=6)

holoCaM.loop2.water2.frame166 

   -2  1 
C         14.11129       83.92984      -20.77614
C         15.60956       83.95320      -20.66745
O         16.13957       83.88886      -19.57004
H         13.74152       84.85315      -21.26802
H         13.80975       83.05256      -21.39085
H         13.64075       83.82936      -19.77592
N         16.35697       83.98310      -21.79926
C         17.80883       83.83128      -21.82353
C         18.56988       85.00961      -21.22170
O         18.16793       86.15435      -21.37460
C         18.23987       83.57374      -23.27124
C         19.70964       83.40853      -23.46617
O         20.28335       84.13990      -24.25520
O         20.43884       82.48723      -22.82097
H         15.84868       84.01420      -22.69875
H         18.06787       82.90973      -21.25771
H         17.90252       84.41791      -23.91018
H         17.74363       82.64585      -23.62360
N         19.71553       84.75300      -20.52380
C         20.56321       85.74660      -19.87492
C         22.07463       85.48846      -20.08016
O         22.86305       86.26362      -19.55568
C         20.22379       85.71717      -18.38282
H         19.95814       83.76956      -20.38797
H         20.32379       86.76544      -20.25196
H         20.81264       86.46963      -17.81925
H         19.14427       85.95252      -18.25101
H         20.41472       84.70765      -17.95972
N         22.55429       84.42109      -20.79512
C         23.97392       84.06821      -20.91672
C         24.33795       83.38395      -22.25437
O         25.50486       83.06352      -22.43443
C         24.42510       83.23508      -19.68299
C         23.62469       81.98687      -19.37019
O         23.94141       81.29869      -18.41464
O         22.52857       81.65108      -20.06860
H         21.88261       83.75540      -21.17196
H         24.58669       84.99860      -20.90653
H         24.36239       83.88656      -18.78388
H         25.49431       82.95433      -19.80910
N         23.42849       83.17669      -23.25501
C         23.73488       82.62646      -24.57223
C         24.21420       81.18420      -24.61446
O         24.54448       80.73334      -25.70235
H         22.47640       83.51016      -23.13554
H         24.50492       83.26943      -25.04540
H         22.81709       82.67936      -25.20105
N         24.30067       80.40023      -23.50456
C         24.87271       79.04891      -23.51076
C         24.06052       77.97535      -24.26482
O         24.48267       76.82667      -24.25240
C         25.13077       78.59890      -22.05810
C         23.88904       78.42692      -21.22906
N         23.99454       77.95299      -19.97542
O         22.78583       78.69802      -21.67574
H         24.02549       80.80699      -22.60016
H         25.87748       79.10471      -23.98473
H         25.78948       79.34058      -21.55430
H         25.67084       77.62789      -22.07679
H         24.91047       77.72833      -19.56175
H         23.14301       77.78780      -19.43700
N         22.91742       78.25629      -24.95247
C         22.17322       77.27684      -25.73255
C         21.09084       76.54304      -24.96110
O         20.35834       75.80003      -25.59971
H         22.61791       79.22762      -25.04141
H         22.86305       76.56065      -26.23216
H         21.64953       77.82635      -26.54400
N         20.92918       76.66299      -23.60923
C         19.89834       75.93944      -22.86296
C         19.18861       76.82086      -21.83546
O         19.68342       77.88669      -21.49502
C         20.53801       74.71830      -22.13614
C         21.06970       73.69969      -23.14729
O         21.60891       75.07966      -21.29049
H         21.60307       77.22255      -23.08132
H         19.11643       75.56591      -23.56138
H         19.75694       74.20388      -21.53425
H         21.46231       75.98953      -20.92788
H         20.25904       73.36895      -23.83049
H         21.89846       74.13300      -23.74656
H         21.46194       72.81013      -22.61056
N         18.03096       76.38153      -21.25506
C         17.40997       77.02395      -20.09865
C         18.16351       76.62304      -18.83980
O         18.23066       75.44692      -18.51066
C         15.86811       76.71999      -20.03221
C         15.14093       77.72632      -20.97094
C         15.29628       76.80162      -18.59874
C         13.61700       77.60740      -21.01031
H         17.62829       75.49224      -21.58858
H         17.50528       78.12579      -20.18874
H         15.68128       75.67207      -20.35674
H         15.53057       77.60211      -22.00346
H         15.36924       78.76530      -20.63838
H         15.41963       77.81264      -18.16791
H         14.22358       76.52135      -18.58214
H         15.78789       76.05631      -17.93906
H         13.16945       77.83763      -20.02061
H         13.21524       78.35859      -21.72358
H         13.31107       76.59394      -21.33761
N         18.73557       77.59505      -18.07510
C         19.37769       77.37282      -16.78650
C         18.34324       77.27516      -15.69114
O         17.16401       77.41820      -15.96701
C         20.30932       78.55735      -16.47191
C         21.43369       78.59646      -17.44490
O         21.31248       79.18371      -18.50900
O         22.52075       77.84003      -17.20433
H         18.66295       78.56556      -18.39711
H         19.97335       76.43361      -16.81505
H         20.76099       78.45729      -15.46440
H         19.75373       79.52127      -16.48821
N         18.71994       77.01904      -14.40682
C         17.75907       76.92551      -13.31998
C         17.08792       78.27203      -13.03075
O         15.86686       78.28203      -13.05395
C         18.37797       76.26881      -12.07165
C         17.34768       76.15862      -10.97683
C         16.18465       75.38779      -11.16231
C         17.52860       76.85158       -9.77031
C         15.21750       75.32105      -10.15792
C         16.55811       76.78165       -8.76830
C         15.40302       76.01880       -8.96218
H         19.71591       76.84023      -14.20776
H         16.96658       76.21544      -13.64524
H         19.25845       76.82745      -11.71855
H         18.74336       75.25197      -12.33396
H         16.02076       74.84342      -12.08408
H         18.41330       77.45582       -9.61128
H         14.32264       74.73150      -10.30997
H         16.70032       77.32439       -7.84374
H         14.65081       75.96954       -8.18679
N         17.74632       79.44496      -12.74859
C         17.05276       80.72073      -12.57256
C         16.12287       81.05605      -13.73833
O         15.05409       81.60276      -13.51105
C         18.19356       81.74301      -12.45266
C         19.26888       80.91410      -11.78927
C         19.17787       79.61455      -12.58515
H         16.47649       80.67788      -11.62228
H         18.58522       82.01189      -13.46028
H         17.91657       82.67646      -11.91526
H         20.28030       81.37177      -11.75227
H         18.94093       80.70753      -10.74146
H         19.65717       79.70460      -13.58415
H         19.67025       78.84313      -11.97587
N         16.46003       80.71368      -15.01363
C         15.60537       80.94325      -16.18304
C         14.32631       80.11617      -16.12432
O         13.28167       80.62256      -16.50750
C         16.39181       80.65598      -17.47714
C         17.57738       81.63710      -17.57360
C         18.47372       81.41566      -18.74013
O         18.22119       80.58683      -19.59478
O         19.60851       82.12601      -18.81295
H         17.37022       80.24874      -15.15555
H         15.32166       82.01767      -16.23512
H         15.73636       80.78726      -18.36794
H         16.75874       79.60932      -17.46514
H         18.22226       81.54450      -16.68054
H         17.20120       82.67999      -17.61352
N         14.32686       78.85748      -15.60583
C         13.14649       78.03218      -15.44877
H         12.24758       78.48336      -15.91558
H         13.32657       77.03627      -15.90574
H         12.94823       77.88689      -14.36434
H         15.20428       78.47013      -15.26159
Ca        20.68229       81.00900      -21.17115
O         20.77040       80.07171      -23.82932
H         21.01662       80.74205      -24.51669
H         20.05008       79.53999      -24.24545
O         17.75679       80.03650      -22.84372
H         17.73061       79.93635      -21.86255
H         16.82967       80.28323      -23.08372

Ca 1.0



