%chk=holoCaM.loop1.water2.frame495.chk
%nprocshared=20
%mem=10GB
%nosave
#b3lyp/svp scf=(tight,noincore,xqc) Test 
#IOP(5/87=12) Density=Current Pop=(MK,readradii) iop(6/33=2) iop(6/42=6)

holoCaM.loop1.water2.frame495 

   0  1 
C         -9.78202      100.01010       18.99155
C        -10.74278      101.15975       19.05566
O        -10.98355      101.80356       18.04536
H         -8.92710      100.20869       19.67252
H        -10.29139       99.07706       19.31286
H         -9.39383       99.87258       17.96042
N        -11.32438      101.48196       20.24109
C        -12.25753      102.58921       20.40529
C        -11.60596      103.90916       20.02816
O        -10.55584      104.22636       20.56966
C        -12.73072      102.65448       21.86385
C        -13.62923      103.83005       22.05897
O        -13.24194      104.82972       22.87280
O        -14.67781      103.91178       21.44138
H        -11.08441      100.90857       21.06569
H        -13.14963      102.41312       19.76773
H        -11.85027      102.76139       22.53404
H        -13.27071      101.72251       22.13946
N        -12.20079      104.73713       19.11869
C        -11.61055      105.99345       18.67321
C        -12.50637      107.20931       18.96627
O        -12.16059      108.30629       18.55339
C        -11.28885      105.83789       17.16988
C        -10.14499      106.76374       16.73412
C         -9.71207      106.49635       15.28939
C         -8.41064      107.25119       14.98457
N         -7.96760      107.01164       13.61326
H        -13.09208      104.44882       18.69191
H        -10.64929      106.15401       19.20565
H        -12.20562      105.95027       16.54835
H        -10.90334      104.80459       17.01317
H         -9.27760      106.54153       17.39536
H        -10.41400      107.83315       16.85038
H        -10.52240      106.80686       14.59421
H         -9.51982      105.40923       15.15066
H         -7.61810      106.90064       15.68512
H         -8.55836      108.34209       15.14202
H         -7.06015      107.50799       13.45936
H         -7.82291      105.98795       13.45365
H         -8.67719      107.38040       12.94000
N        -13.65264      107.09657       19.70231
C        -14.57174      108.20299       19.99382
C        -14.59437      108.50110       21.48724
O        -14.37649      109.63694       21.88417
C        -15.98943      107.81567       19.52805
C        -16.04000      107.59261       18.04462
O        -16.37644      106.38723       17.55321
O        -15.78204      108.50451       17.27633
H        -13.90076      106.17378       20.08108
H        -14.27234      109.13500       19.46406
H        -16.71122      108.62009       19.78926
H        -16.31150      106.88652       20.04806
N        -14.82856      107.49394       22.36563
C        -14.83770      107.61035       23.81763
C        -16.02637      106.87864       24.41239
O        -16.74043      107.43502       25.23341
H        -14.93304      106.56242       21.95880
H        -14.78330      108.66688       24.16262
H        -13.93466      107.08799       24.19634
N        -16.28078      105.59938       24.01725
C        -17.33891      104.73294       24.50038
C        -16.80282      103.32039       24.81190
O        -17.59908      102.47429       25.19125
C        -18.48551      104.73200       23.46176
C        -18.04600      104.47289       22.04489
O        -17.46293      103.31487       21.70752
O        -18.22250      105.32307       21.18682
H        -15.71765      105.20469       23.26492
H        -17.77840      105.13337       25.44056
H        -18.94940      105.74370       23.48056
H        -19.26856      104.00218       23.75716
N        -15.47070      103.00137       24.72365
C        -14.90123      101.70996       25.09075
C        -15.27223      100.52554       24.20891
O        -14.85495       99.42912       24.55488
H        -14.78717      103.72378       24.47919
H        -15.19783      101.48795       26.13790
H        -13.79105      101.79056       25.06875
N        -16.04052      100.63541       23.08572
C        -16.49529       99.48269       22.29755
C        -16.02779       99.54799       20.84398
O        -15.34183      100.49244       20.47647
C        -18.03294       99.35729       22.41382
C        -18.46131       99.06023       23.86200
O        -18.67772      100.50204       21.91319
H        -16.35495      101.56598       22.80035
H        -16.06167       98.54192       22.70275
H        -18.38003       98.48985       21.81663
H        -18.66686      101.20022       22.61889
H        -19.56341       98.94275       23.91343
H        -17.98821       98.11749       24.21186
H        -18.15996       99.87895       24.54841
N        -16.31045       98.51726       19.98181
C        -15.74149       98.38297       18.63876
C        -16.83878       98.28758       17.56855
O        -17.70038       97.42488       17.66947
C        -14.82551       97.11869       18.58177
C        -13.80112       97.11822       19.75122
C        -14.09633       97.05471       17.22232
C        -12.92773       95.86229       19.80675
H        -16.88310       97.73046       20.32282
H        -15.08605       99.24467       18.41927
H        -15.46585       96.21494       18.69047
H        -14.35134       97.15159       20.71556
H        -13.14827       98.01668       19.69381
H        -13.50076       96.12689       17.12008
H        -14.81475       97.05569       16.37938
H        -13.41658       97.92559       17.11388
H        -13.56383       94.95350       19.86829
H        -12.26086       95.78915       18.92476
H        -12.28173       95.90285       20.70889
N        -16.80102       99.09861       16.46830
C        -17.72216       99.04167       15.32774
C        -16.98900       98.54634       14.06819
O        -15.83021       98.17347       14.16817
C        -18.35215      100.44339       15.09315
C        -19.08761      100.96937       16.33175
O        -17.39149      101.37073       14.64396
H        -16.04714       99.78604       16.41335
H        -18.54770       98.32405       15.52985
H        -19.12303      100.36332       14.29932
H        -16.84271      101.65812       15.41800
H        -19.88014      100.25671       16.64351
H        -18.37751      101.11111       17.17249
H        -19.56090      101.94640       16.09865
N        -17.60642       98.51958       12.84543
C        -16.98241       98.04049       11.60060
C        -15.65130       98.71339       11.30179
O        -14.68436       98.00260       11.06851
C        -17.92015       98.22953       10.37722
C        -19.12449       97.28571       10.41951
O        -18.35329       99.56477       10.29887
H        -18.57539       98.86276       12.79141
H        -16.77165       96.95092       11.69495
H        -17.33821       97.96722        9.46067
H        -18.65815       99.71967        9.36700
H        -18.77269       96.23154       10.42891
H        -19.75607       97.46799       11.31155
H        -19.74164       97.43132        9.50695
N        -15.52450      100.06678       11.26870
C        -14.25296      100.74245       11.00249
C        -13.21919      100.35480       12.04179
O        -12.13249       99.92522       11.67954
C        -14.44666      102.27377       11.02597
C        -15.29296      102.75305        9.83764
C        -15.60521      104.24788        9.94897
C        -16.41299      104.72469        8.73523
N        -16.80258      106.12577        8.88372
H        -16.36026      100.63442       11.47297
H        -13.86769      100.46026        9.99630
H        -13.45747      102.78091       10.96159
H        -14.92380      102.56738       11.98736
H        -16.25679      102.20321        9.80154
H        -14.73550      102.54790        8.89647
H        -14.66280      104.83455       10.01721
H        -16.19894      104.41560       10.87460
H        -17.33111      104.10496        8.62860
H        -15.79931      104.60390        7.81431
H        -17.41791      106.23573        9.72270
H        -15.95515      106.72986        8.98509
H        -17.33548      106.42365        8.03495
N        -13.50447      100.48491       13.36431
C        -12.54848      100.19902       14.43448
C        -12.16170       98.71894       14.50915
O        -11.27442       98.39405       15.28601
C        -13.15954      100.60368       15.78867
C        -13.56423      102.09625       15.87111
C        -14.40658      102.39934       17.07830
O        -14.94266      103.62130       17.23355
O        -14.66937      101.53669       17.89588
H        -14.44798      100.82155       13.60413
H        -11.63269      100.80436       14.25688
H        -12.46994      100.36344       16.62341
H        -14.04920       99.96996       15.90896
H        -14.19008      102.38557       15.00694
H        -12.65789      102.73741       15.86451
N        -12.79931       97.76593       13.77001
C        -12.49227       96.35181       13.81799
H        -11.66164       96.11935       14.51463
H        -13.39604       95.79368       14.14412
H        -12.21291       96.00530       12.80047
H        -13.56404       98.03387       13.14977
Ca       -16.35391      103.88493       18.97695
O        -19.26172      102.13195       19.38701
H        -20.15752      101.90580       19.03217
H        -19.44085      102.46867       20.29855
O        -19.06342      104.83005       17.75160
H        -19.60481      104.07634       17.40859
H        -18.64709      105.21860       16.94225

Ca 1.0



