%chk=holoCaM.loop1.water2.frame214.chk
%nprocshared=20
%mem=10GB
%nosave
#b3lyp/svp scf=(tight,noincore,xqc) Test 
#IOP(5/87=12) Density=Current Pop=(MK,readradii) iop(6/33=2) iop(6/42=6)

holoCaM.loop1.water2.frame214 

   0  1 
C         29.28542       60.43935      113.72179
C         28.62626       59.46639      114.65015
O         28.18479       59.85932      115.72099
H         30.33059       60.11895      113.53072
H         28.73003       60.46409      112.75997
H         29.29150       61.46050      114.15761
N         28.50460       58.16274      114.28010
C         27.83024       57.16650      115.10025
C         28.56469       56.95724      116.42075
O         29.67908       56.45433      116.41758
C         27.64171       55.87866      114.27028
C         27.08013       54.68879      114.99257
O         27.66341       53.62235      114.89819
O         25.93017       54.74330      115.69057
H         28.86561       57.88962      113.35217
H         26.83121       57.56935      115.30258
H         28.61793       55.57481      113.83244
H         26.95607       56.12478      113.42931
N         27.99964       57.39061      117.59058
C         28.69906       57.39345      118.87578
C         28.62591       56.06655      119.62559
O         29.22496       55.98879      120.68997
C         28.18428       58.55395      119.77659
C         26.74015       58.39072      120.29883
C         26.31267       59.62456      121.11855
C         24.84721       59.57497      121.59067
N         24.60363       58.50910      122.56180
H         27.10240       57.88768      117.52542
H         29.76801       57.63403      118.67890
H         28.26333       59.50047      119.19648
H         28.85554       58.64856      120.65901
H         26.68108       57.47978      120.92860
H         26.04273       58.27182      119.44996
H         26.41958       60.52553      120.47832
H         26.98151       59.75505      121.99663
H         24.16924       59.44975      120.72020
H         24.60379       60.54950      122.06905
H         24.77310       57.57194      122.13593
H         25.21762       58.64022      123.39796
H         23.60441       58.55462      122.86742
N         27.90856       54.99328      119.17203
C         27.72566       53.78232      119.98499
C         27.28843       52.52360      119.20671
O         26.99945       51.52201      119.84703
C         26.78078       54.09094      121.17571
C         25.41280       54.57888      120.78115
O         24.51000       54.85253      121.74146
O         25.11551       54.75481      119.61116
H         27.41394       55.08082      118.27596
H         28.70731       53.48915      120.42027
H         27.23468       54.87419      121.81889
H         26.67193       53.17970      121.80165
N         27.36565       52.44229      117.84820
C         27.19023       51.20829      117.08766
C         25.75429       50.79258      116.84645
O         25.41825       49.64043      117.07821
H         27.72249       53.24619      117.32468
H         27.79147       50.38779      117.53709
H         27.60758       51.37946      116.07451
N         24.87065       51.67837      116.31248
C         23.51257       51.35796      115.88122
C         23.17684       51.92837      114.48940
O         22.06019       51.70719      114.04018
C         22.50300       51.82453      116.94804
C         22.71767       53.23195      117.42187
O         22.93226       53.46052      118.72926
O         22.70060       54.16808      116.64481
H         25.17352       52.65034      116.23985
H         23.38116       50.25569      115.79906
H         22.61062       51.16226      117.83434
H         21.46627       51.69994      116.56700
N         24.07219       52.63298      113.72998
C         23.77724       53.12253      112.38544
C         22.76510       54.25817      112.29972
O         22.49759       54.68507      111.18523
H         25.03201       52.77682      114.06663
H         23.43431       52.27121      111.75818
H         24.71885       53.50942      111.93648
N         22.18113       54.81663      113.39914
C         21.24058       55.93895      113.34468
C         21.79154       57.14085      114.09156
O         22.84279       57.04764      114.69919
C         19.85323       55.52925      113.89945
C         19.11569       54.57481      112.95395
O         19.95656       54.98480      115.19146
H         22.42846       54.45298      114.32219
H         21.10447       56.28225      112.29555
H         19.20497       56.42870      113.96628
H         20.28213       54.04984      115.11093
H         18.96955       55.06657      111.96789
H         19.68467       53.63366      112.80839
H         18.11542       54.33660      113.37431
N         21.14907       58.33922      114.01095
C         21.65762       59.59243      114.55934
C         20.59725       60.20523      115.47259
O         19.47601       60.40785      115.02676
C         22.01878       60.52273      113.35606
C         23.10604       59.89570      112.43005
C         22.43959       61.93811      113.78025
C         24.48117       59.66766      113.07855
H         20.28442       58.39100      113.45048
H         22.58076       59.43415      115.15459
H         21.09919       60.64424      112.74133
H         23.25271       60.55940      111.55088
H         22.74413       58.92020      112.04182
H         22.62582       62.56281      112.88066
H         21.63835       62.42973      114.36742
H         23.36521       61.92199      114.37710
H         24.93335       60.61760      113.42806
H         24.41821       58.96134      113.92590
H         25.17229       59.22327      112.33177
N         20.90471       60.57232      116.75321
C         19.96672       61.24299      117.65831
C         20.21660       62.74191      117.63734
O         21.08751       63.18925      116.91344
C         20.10903       60.70200      119.11303
C         19.82096       59.20308      119.22605
O         21.36864       61.02482      119.65713
H         21.87789       60.46517      117.06684
H         18.91947       61.08210      117.32006
H         19.34986       61.19092      119.75766
H         22.02011       60.32617      119.39594
H         18.79567       58.97955      118.86337
H         20.55914       58.63164      118.63202
H         19.89852       58.88698      120.28912
N         19.49894       63.58475      118.43080
C         19.76994       65.02030      118.52957
C         21.21230       65.26624      118.94459
O         21.86752       66.11745      118.36001
C         18.83316       65.69908      119.56067
C         17.36439       65.65371      119.13076
O         18.97562       65.09121      120.82133
H         18.76288       63.18052      119.02608
H         19.59738       65.51001      117.54431
H         19.12977       66.77504      119.61523
H         18.86701       65.80128      121.50632
H         17.23977       66.15393      118.14705
H         16.99289       64.61159      119.05455
H         16.74333       66.19056      119.87858
N         21.77081       64.51876      119.93607
C         23.13274       64.69482      120.43459
C         24.12961       64.60616      119.29838
O         24.95478       65.49119      119.12381
C         23.51191       63.59896      121.48076
C         22.48968       63.32607      122.59954
C         22.05168       64.57935      123.35715
C         20.94433       64.22710      124.35825
N         20.47226       65.42039      125.05551
H         21.18680       63.77517      120.33339
H         23.21006       65.69126      120.92207
H         24.48792       63.88324      121.93224
H         23.65633       62.61963      120.97385
H         22.92758       62.58825      123.30756
H         21.59362       62.83629      122.16804
H         21.63609       65.31909      122.64110
H         22.92471       65.02834      123.87797
H         21.32205       63.48588      125.09698
H         20.08863       63.76981      123.81015
H         19.69980       65.15072      125.70624
H         21.25318       65.84508      125.60560
H         20.10414       66.11552      124.36551
N         24.08874       63.51783      118.49200
C         25.02968       63.23042      117.41944
C         24.97901       64.30357      116.34663
O         25.99979       64.92682      116.09144
C         24.70796       61.83029      116.85824
C         24.93977       60.76168      117.94065
C         24.48384       59.40875      117.51532
O         25.00486       58.84955      116.42365
O         23.68920       58.77677      118.19202
H         23.33287       62.84124      118.67650
H         26.06319       63.19669      117.83315
H         25.34985       61.59822      115.97996
H         23.64625       61.81202      116.54625
H         24.41096       61.00409      118.88257
H         26.02631       60.71939      118.16222
N         23.82011       64.58535      115.69244
C         23.68553       65.61701      114.68539
H         22.93437       66.36104      115.02624
H         24.64055       66.14682      114.48981
H         23.33046       65.16140      113.73755
H         22.97958       64.05263      115.92366
Ca        24.91672       56.62580      116.27972
O         22.33070       56.69131      119.86142
H         21.74775       56.41764      120.61310
H         23.22206       56.82362      120.26952
O         20.60709       56.31363      117.54735
H         19.75568       56.50229      118.01390
H         20.77059       55.35796      117.73795

Ca 1.0



