%chk=holoCaM.loop3.water3.frame224.chk
%nprocshared=20
%mem=10GB
%nosave
#b3lyp/svp scf=(tight,noincore,xqc) Test 
#IOP(5/87=12) Density=Current Pop=(MK,readradii) iop(6/33=2) iop(6/42=6)

holoCaM.loop3.water3.frame224 

   0  1 
C         31.03251       65.88151        4.84247
C         30.16443       64.87377        5.52734
O         29.03797       64.65766        5.10258
H         31.95105       65.37749        4.47166
H         30.50231       66.33700        3.98030
H         31.31758       66.67667        5.56151
N         30.65313       64.18296        6.59049
C         29.90436       63.12331        7.24522
C         28.68367       63.68377        7.95990
O         28.82940       64.44456        8.90654
C         30.84538       62.35962        8.18355
C         30.28631       61.08212        8.69673
O         29.16130       60.70568        8.41768
O         31.07740       60.31683        9.44946
H         31.62264       64.37555        6.89017
H         29.58346       62.41208        6.45640
H         31.15621       63.00343        9.03473
H         31.75508       62.07665        7.61060
N         27.43858       63.39419        7.49030
C         26.21525       64.00602        7.99643
C         25.79586       63.44851        9.35825
O         25.01145       64.09096       10.04064
C         25.10036       63.79673        6.94283
C         23.88339       64.71393        7.12650
C         22.87305       64.57598        5.97287
C         22.13813       63.22611        5.97105
N         21.17299       63.16172        4.87351
H         27.37396       62.80626        6.65217
H         26.41488       65.09827        8.07133
H         24.81475       62.72289        6.92333
H         25.52678       64.05413        5.94659
H         24.25508       65.76227        7.11490
H         23.37635       64.53291        8.09626
H         23.39317       64.72878        5.00039
H         22.11440       65.38038        6.08340
H         21.60070       63.10754        6.93807
H         22.85626       62.38642        5.86261
H         21.67095       63.22126        3.95544
H         20.65986       62.25196        4.92135
H         20.48194       63.94314        4.95099
N         26.21818       62.21643        9.77071
C         25.80735       61.56727       11.02144
C         26.98592       61.16787       11.90976
O         26.74000       60.68014       13.00531
C         24.89196       60.34569       10.72917
C         25.43958       59.28360        9.79250
O         24.74351       58.32057        9.52134
O         26.64560       59.43014        9.20335
H         26.82808       61.69805        9.13293
H         25.19938       62.27398       11.62944
H         23.95624       60.73134       10.26843
H         24.60901       59.87078       11.69524
N         28.28170       61.35946       11.53683
C         29.41866       61.04833       12.38802
C         29.52706       59.58049       12.75300
O         29.57843       59.27788       13.93623
H         28.49112       61.78842       10.62810
H         29.36216       61.66449       13.31237
H         30.35025       61.33645       11.85513
N         29.61272       58.61904       11.78896
C         29.85153       57.19845       12.07581
C         31.15032       56.70061       11.43184
O         31.44885       55.52016       11.54696
C         28.64342       56.34232       11.62857
C         28.50537       56.23453       10.13622
N         28.51304       55.03622        9.50719
O         28.38275       57.24787        9.48531
H         29.52593       58.91888       10.80884
H         29.94662       57.04570       13.17116
H         27.71417       56.78320       12.05144
H         28.75186       55.31952       12.04629
H         28.60887       54.15833       10.03570
H         28.41555       54.98506        8.48214
N         31.95177       57.53770       10.71289
C         33.16671       57.14567       10.02978
C         32.97741       57.02992        8.52829
O         33.97557       56.79927        7.86050
H         31.70693       58.52122       10.63259
H         33.54716       56.17225       10.40269
H         33.94437       57.91136       10.24951
N         31.74663       57.10619        7.92358
C         31.55806       56.88851        6.49204
C         30.91810       58.11717        5.80083
O         29.79155       58.74603        6.36747
C         30.79747       55.57661        6.19249
C         31.55966       54.34426        6.64483
C         31.69316       54.04132        8.00977
C         32.14161       53.47669        5.69761
C         32.39154       52.90197        8.42090
C         32.84522       52.33980        6.11178
C         32.97027       52.04812        7.47693
O         33.63928       50.95312        7.89276
H         30.90311       57.26357        8.49175
H         32.54421       56.76576        5.99065
H         30.68021       55.50975        5.08828
H         29.78179       55.58499        6.62990
H         31.24878       54.68000        8.75912
H         32.06213       53.68046        4.63655
H         32.48037       52.68169        9.47687
H         33.29197       51.68612        5.37182
H         34.05059       50.33281        7.27378
N         30.78768       57.93373        4.35448
C         30.31998       59.09067        3.56757
C         29.86674       58.49993        2.24534
O         30.68249       57.89785        1.55722
C         31.42691       60.19255        3.35523
C         31.83701       60.89402        4.68159
C         30.92949       61.26589        2.35657
C         33.08573       61.76987        4.57140
H         31.69928       57.59727        3.96224
H         29.44070       59.55940        4.05657
H         32.32117       59.69466        2.92192
H         32.10458       60.16805        5.46131
H         30.98634       61.49881        5.04648
H         30.03024       61.78384        2.75533
H         31.70766       62.02514        2.14763
H         30.67187       60.81751        1.37607
H         32.96701       62.59919        3.84991
H         33.30512       62.21757        5.56472
H         33.95277       61.14013        4.27739
N         28.57958       58.63348        1.82139
C         28.09420       58.07435        0.56825
C         28.04686       59.14392       -0.49578
O         28.33406       60.29673       -0.20004
C         26.70900       57.42833        0.77842
O         25.76010       58.39669        1.15089
H         27.93119       59.20099        2.38171
H         28.79294       57.29004        0.20344
H         26.78510       56.62247        1.54561
H         26.35504       56.94447       -0.15549
H         25.46686       58.19554        2.07708
N         27.71799       58.83188       -1.77616
C         27.60458       59.82620       -2.83566
C         26.49428       60.81504       -2.52095
O         26.66358       61.99774       -2.76608
C         27.33612       59.14917       -4.17969
H         27.53080       57.84052       -2.00358
H         28.57158       60.37069       -2.94088
H         26.38224       58.58189       -4.15543
H         27.28946       59.91193       -4.98623
H         28.16770       58.44933       -4.41480
N         25.34598       60.38655       -1.91765
C         24.27269       61.28221       -1.49225
C         24.79506       62.32636       -0.52090
O         24.60667       63.51234       -0.76095
C         23.15504       60.47033       -0.82275
H         25.24838       59.38038       -1.71787
H         23.83683       61.78578       -2.38271
H         22.75467       59.71847       -1.53579
H         23.53272       59.93550        0.07539
H         22.32441       61.14071       -0.51613
N         25.50141       61.94919        0.58010
C         26.09023       62.88068        1.54286
C         27.01648       63.87414        0.85357
O         27.02730       65.03119        1.24748
C         26.85811       62.10245        2.63569
C         25.90389       61.27975        3.52508
C         26.65455       60.38081        4.46637
O         27.56219       60.88383        5.31772
O         26.44564       59.17842        4.45995
H         25.66333       60.93957        0.71112
H         25.28402       63.46417        2.04203
H         27.41001       62.80876        3.29531
H         27.60328       61.44759        2.13936
H         25.23381       60.64602        2.90822
H         25.26822       61.97888        4.11064
N         27.76953       63.50734       -0.22113
C         28.60872       64.41855       -0.97169
H         29.65064       64.03756       -0.98037
H         28.24065       64.47087       -2.01921
H         28.60538       65.44464       -0.55014
H         27.72438       62.54195       -0.55660
Ca        27.72402       58.50623        7.38369
O         27.53313       56.47765        5.22558
H         27.90730       56.31331        4.32439
H         27.58586       55.60115        5.68231
O         24.47757       59.62734        6.78585
H         24.10287       59.93802        5.92450
H         23.91476       58.85135        7.03261
O         25.78039       55.82882        7.84051
H         25.32080       56.69791        7.73967
H         25.45491       55.29613        7.07298

Ca 1.0



