%chk=holoCaM-CaMKII.loop1.water2.frame8.chk
%nprocshared=20
%mem=10GB
%nosave
#b3lyp/svp scf=(tight,noincore,xqc) Test 
#IOP(5/87=12) Density=Current Pop=(MK,readradii) iop(6/33=2) iop(6/42=6)

holoCaM-CaMKII.loop1.water2.frame8 

   0  1 
C         68.93630       63.84121       14.72337
C         69.57243       62.93111       13.71187
O         69.03575       61.87296       13.42785
H         67.98351       63.41572       15.10264
H         69.62987       63.98062       15.58052
H         68.73114       64.83130       14.26356
N         70.72973       63.30678       13.10947
C         71.45747       62.48628       12.14112
C         72.06231       61.27358       12.84773
O         72.92894       61.46106       13.68937
C         72.53046       63.39200       11.49510
C         73.54273       62.74736       10.59859
O         74.72267       62.85444       10.89140
O         73.23630       62.09410        9.46520
H         71.09828       64.24084       13.35285
H         70.75970       62.15785       11.33916
H         73.10376       63.88110       12.31531
H         72.01612       64.19597       10.92764
N         71.62668       60.00387       12.57086
C         72.10554       58.79355       13.24948
C         72.77455       57.79271       12.30411
O         73.22736       56.76114       12.78095
C         70.93030       58.11292       13.99615
C         70.24673       59.01543       15.04885
C         71.20447       59.63500       16.08365
C         71.94222       58.59804       16.94087
N         72.99068       59.24159       17.73134
H         70.88252       59.88672       11.87364
H         72.89188       59.05016       13.98780
H         71.29858       57.19500       14.49930
H         70.15976       57.78927       13.26128
H         69.45460       58.43464       15.56869
H         69.74784       59.84475       14.51775
H         70.63542       60.31809       16.75080
H         71.94229       60.26251       15.55862
H         72.42781       57.83102       16.30359
H         71.21056       58.08967       17.60688
H         73.71914       59.63138       17.08751
H         72.59466       60.01068       18.31781
H         73.44267       58.52909       18.34797
N         72.92628       58.04982       10.97583
C         73.67655       57.19774       10.04356
C         74.95268       57.90008        9.56495
O         75.70384       57.29700        8.81144
C         72.78253       56.68764        8.87184
C         72.08275       57.75552        8.06963
O         71.34043       57.45277        7.15077
O         72.23506       59.03510        8.43368
H         72.55387       58.93765       10.63231
H         74.03465       56.28308       10.56490
H         71.99391       56.03351        9.30280
H         73.40181       56.06472        8.18971
N         75.30968       59.13382       10.03125
C         76.58662       59.77295        9.76048
C         76.78695       60.17806        8.32204
O         77.81468       59.85304        7.74589
H         74.69473       59.63603       10.68608
H         77.41777       59.12284       10.10973
H         76.62918       60.71171       10.35624
N         75.86278       60.95959        7.70732
C         76.04230       61.59335        6.40791
C         75.92885       63.11987        6.53083
O         75.95848       63.79367        5.51055
C         75.07575       60.97577        5.37567
C         73.63268       60.97415        5.78078
O         73.02700       59.91920        5.86949
O         72.98848       62.12419        6.01654
H         74.98934       61.15335        8.20915
H         77.05994       61.39872        6.00327
H         75.38562       59.91916        5.21631
H         75.18375       61.50404        4.40410
N         75.88728       63.74000        7.75129
C         75.90293       65.18450        7.93461
C         74.60653       65.89146        7.60488
O         74.57282       67.10207        7.79101
H         75.95155       63.18148        8.61149
H         76.74430       65.62343        7.35592
H         76.09493       65.39351        9.01035
N         73.49992       65.24262        7.14146
C         72.23108       65.91675        6.88040
C         71.10660       65.29769        7.69424
O         71.30064       64.26042        8.31964
C         71.89494       65.89807        5.36826
C         72.94510       66.65360        4.53736
O         71.73079       64.58265        4.89873
H         73.54789       64.23163        6.97666
H         72.29601       66.98255        7.19445
H         70.93255       66.42937        5.20788
H         72.62950       64.20534        4.71483
H         72.65275       66.64281        3.46602
H         73.01456       67.70875        4.87597
H         73.94579       66.18061        4.63463
N         69.90109       65.92376        7.76173
C         68.75782       65.44430        8.52998
C         67.56798       65.33167        7.58964
O         67.24167       66.30916        6.92495
C         68.46803       66.41535        9.71440
C         69.71045       66.50311       10.64511
C         67.23078       65.94237       10.51007
C         69.58869       67.55293       11.75129
H         69.79463       66.82637        7.26863
H         68.96918       64.44747        8.98030
H         68.26045       67.42626        9.29801
H         70.60148       66.78955       10.04802
H         69.90858       65.50986       11.10478
H         66.33463       65.89229        9.85870
H         67.40749       64.93515       10.94691
H         66.97965       66.64691       11.32704
H         70.53209       67.57726       12.33737
H         69.42511       68.55747       11.30644
H         68.76584       67.32019       12.45528
N         66.84735       64.17972        7.51313
C         65.68607       63.99677        6.64525
C         64.41635       63.94172        7.47383
O         64.48744       64.05896        8.68657
C         65.86196       62.73087        5.76549
C         67.01041       62.89319        4.75964
O         66.02675       61.57944        6.55909
H         67.10265       63.40602        8.14318
H         65.55833       64.87139        5.96913
H         64.95424       62.57487        5.14732
H         66.97577       61.53063        6.84380
H         67.96833       63.08450        5.28107
H         67.10650       61.97355        4.14357
H         66.80204       63.74904        4.08273
N         63.20159       63.83135        6.87404
C         61.92976       63.87642        7.59546
C         61.80752       62.74395        8.60539
O         61.55517       63.01949        9.76920
C         60.73191       63.86669        6.61292
C         60.71158       65.12247        5.73276
O         60.76837       62.72930        5.78613
H         63.18232       63.75231        5.84606
H         61.86780       64.83710        8.15711
H         59.78880       63.89261        7.21139
H         60.03207       62.12759        6.07033
H         59.82050       65.10308        5.07135
H         60.65894       66.03345        6.36663
H         61.61475       65.19030        5.09180
N         61.99650       61.44785        8.23014
C         61.89785       60.30793        9.14326
C         62.78217       60.50303       10.36049
O         62.29081       60.35610       11.47183
C         62.25718       59.01434        8.37641
C         62.23895       57.74173        9.24190
C         62.46355       56.50186        8.35839
C         62.53055       55.18050        9.14264
N         63.72486       55.09580        9.98613
H         62.25367       61.26689        7.24832
H         60.84651       60.20512        9.49595
H         63.26950       59.11465        7.92584
H         61.51738       58.90111        7.55285
H         61.25944       57.64260        9.75902
H         63.04081       57.82519       10.00414
H         63.39891       56.61278        7.76786
H         61.61195       56.43418        7.64578
H         62.56683       54.34922        8.40341
H         61.61413       55.04823        9.75913
H         63.76296       54.14808       10.42616
H         64.58470       55.22596        9.40421
H         63.69807       55.81000       10.74692
N         64.08567       60.86718       10.22778
C         64.97571       61.06019       11.37049
C         64.41092       62.10061       12.32730
O         64.16871       61.77329       13.48086
C         66.39490       61.45527       10.90685
C         67.03451       60.35188       10.04503
C         68.44014       60.68783        9.65786
O         68.68625       61.69798        9.02092
O         69.43503       59.84171        9.97195
H         64.44125       61.02403        9.27336
H         65.06100       60.09640       11.92215
H         67.02671       61.61222       11.80610
H         66.36088       62.40833       10.33426
H         66.45827       60.19624        9.11184
H         67.04039       59.39684       10.61384
N         64.14653       63.36636       11.91001
C         63.56058       64.36866       12.77174
H         62.56903       64.02252       13.13450
H         64.22822       64.56811       13.63530
H         63.41534       65.31370       12.20470
H         64.34895       63.62558       10.94256
Ca        71.52275       61.15890        8.35877
O         68.45249       59.31183        6.79029
H         68.35853       59.44579        5.81431
H         69.33569       58.88205        6.89492
O         70.06816       61.61478        5.72422
H         69.93211       61.50670        4.74962
H         70.31297       62.56675        5.83894

Ca 1.0



