%chk=holoCaM-CaMKII.loop4.water2.frame283.chk
%nprocshared=20
%mem=10GB
%nosave
#b3lyp/svp scf=(tight,noincore,xqc) Test 
#IOP(5/87=12) Density=Current Pop=(MK,readradii) iop(6/33=2) iop(6/42=6)

holoCaM-CaMKII.loop4.water2.frame283 

   -3  1 
C         52.24432       34.46898       86.79628
C         52.02445       33.82770       88.13265
O         50.99310       33.20581       88.34165
H         53.14769       34.02958       86.32325
H         51.37187       34.30673       86.12933
H         52.39919       35.56116       86.92729
N         52.96180       33.97550       89.10540
C         52.85187       33.40073       90.43652
C         52.47876       34.50984       91.40329
O         53.14478       35.53525       91.43384
C         54.17407       32.70208       90.78865
C         54.14864       32.11145       92.16198
O         55.05586       32.51572       93.06700
O         53.32113       31.26541       92.46173
H         53.78273       34.56895       88.90455
H         52.05163       32.62654       90.46421
H         55.01236       33.42995       90.72725
H         54.36602       31.88614       90.05777
N         51.37591       34.36937       92.19401
C         50.78801       35.44278       92.99245
C         50.94887       35.19917       94.49562
O         50.83836       36.15823       95.24643
C         49.27399       35.57196       92.59952
C         49.04710       35.70623       91.06756
C         48.52890       36.68344       93.35775
C         49.61138       36.97982       90.43994
H         50.88966       33.46599       92.17433
H         51.31978       36.39322       92.77191
H         48.77760       34.62128       92.88821
H         47.95415       35.67108       90.86111
H         49.49597       34.83463       90.54669
H         48.53158       36.49055       94.44893
H         48.98355       37.67600       93.16743
H         47.46233       36.70351       93.04502
H         49.13335       37.88079       90.87474
H         50.70971       37.03535       90.57702
H         49.39602       36.97227       89.35028
N         51.16775       33.95626       95.01475
C         51.26471       33.67495       96.45128
C         52.59014       32.98837       96.83064
O         52.77806       32.70927       98.00663
C         50.00733       32.89335       96.91245
C         49.69767       31.74630       96.00271
O         50.64559       30.83327       95.76912
O         48.63956       31.70561       95.39792
H         51.21722       33.15187       94.37449
H         51.25430       34.61663       97.04355
H         49.13546       33.58537       96.88724
H         50.13071       32.55052       97.96209
N         53.59363       32.79077       95.92431
C         54.95943       32.42777       96.29688
C         55.24590       30.94543       96.45271
O         55.80484       30.55766       97.46818
H         53.45298       33.11035       94.95746
H         55.27654       33.00356       97.19444
H         55.62908       32.76568       95.48041
N         54.96429       30.07169       95.44598
C         55.38945       28.66584       95.41745
C         56.00026       28.26349       94.07168
O         56.31247       27.09109       93.90913
C         54.23971       27.73067       95.84172
C         52.90676       28.13910       95.31332
O         52.61692       28.19878       94.00238
O         52.05439       28.48563       96.11577
H         54.41184       30.42273       94.65158
H         56.19453       28.47705       96.16251
H         54.16728       27.80332       96.95057
H         54.46431       26.66865       95.60685
N         56.27373       29.16904       93.08717
C         56.93071       28.81101       91.83961
C         56.06414       28.04610       90.85868
O         56.56761       27.75928       89.78203
H         56.10072       30.16874       93.24520
H         57.86168       28.24314       92.05873
H         57.22703       29.74818       91.31930
N         54.76399       27.71240       91.11634
C         53.89940       27.07441       90.12414
C         52.71230       27.96825       89.82043
O         52.53984       28.98706       90.47646
C         53.42181       25.69746       90.62288
C         54.59293       24.72535       90.82176
C         54.10652       23.35378       91.21491
N         53.43266       23.15798       92.37233
O         54.33031       22.40403       90.47908
H         54.34732       27.94572       92.02713
H         54.44279       26.93003       89.16498
H         52.73469       25.25577       89.86830
H         52.86239       25.82064       91.57391
H         55.28450       25.10512       91.60395
H         55.15438       24.64808       89.86427
H         53.24109       23.94140       93.01302
H         53.10555       22.21528       92.63181
N         51.86652       27.65741       88.79393
C         50.71982       28.48037       88.43678
C         49.45692       27.63806       88.49741
O         49.23966       26.79844       87.63477
C         50.94567       29.12676       87.03872
C         49.71926       29.90655       86.54394
C         52.15199       30.08017       87.08367
H         52.05905       26.82101       88.22205
H         50.60318       29.31364       89.16406
H         51.15419       28.32535       86.29570
H         48.84848       29.23200       86.42190
H         49.46030       30.72219       87.24834
H         49.92655       30.34923       85.54647
H         51.97201       30.89187       87.81857
H         53.07651       29.54332       87.37820
H         52.32442       30.53862       86.08657
N         48.57221       27.82863       89.51661
C         47.26556       27.17968       89.60699
C         46.35795       27.78265       88.52600
O         46.78025       28.72448       87.87316
C         46.71653       27.44198       91.04076
C         45.54396       26.63129       91.54026
N         45.04794       26.88231       92.77470
O         45.06411       25.72742       90.87786
H         48.84533       28.47416       90.26601
H         47.41068       26.08540       89.46949
H         46.48704       28.52564       91.13655
H         47.52927       27.20461       91.75794
H         45.45215       27.62614       93.36278
H         44.25993       26.33244       93.14732
N         45.10951       27.31107       88.26169
C         44.22818       27.92542       87.27134
C         43.85066       29.34221       87.67731
O         43.98777       30.24447       86.86225
C         42.96071       27.06947       87.07817
C         42.04695       27.63802       86.01411
C         42.50493       27.82040       84.69561
C         40.72495       27.98977       86.33195
C         41.65830       28.35130       83.71912
C         39.87752       28.51361       85.35098
C         40.34282       28.69750       84.04084
O         39.53688       29.20230       83.08528
H         44.77440       26.47714       88.75146
H         44.75887       27.95084       86.29438
H         42.42419       26.98174       88.04870
H         43.26437       26.04718       86.76481
H         43.51733       27.55666       84.41869
H         40.34750       27.85665       87.33801
H         42.02591       28.49160       82.71014
H         38.86003       28.77613       85.61078
H         38.61825       29.44842       83.26438
N         43.38050       29.60833       88.93241
C         42.96543       30.94118       89.38589
C         44.06200       32.00690       89.32634
O         43.75792       33.15920       89.60423
C         42.37996       30.86288       90.81584
C         43.42754       30.50674       91.88908
C         42.78088       30.35010       93.23429
O         43.13498       31.15456       94.25437
O         41.94150       29.48178       93.41409
H         43.28542       28.81259       89.58091
H         42.14563       31.27300       88.71067
H         41.56800       30.10286       90.81215
H         41.92173       31.84183       91.08240
H         44.19080       31.31334       91.94289
H         43.94366       29.55680       91.64133
N         45.33723       31.71539       88.94595
C         46.39048       32.70435       88.79616
C         46.60272       32.93651       87.31241
O         46.46938       34.06840       86.86890
C         47.66980       32.22054       89.50708
C         47.40387       31.92291       90.99076
C         48.64732       31.49366       91.70633
O         49.03700       32.14505       92.80987
O         49.29368       30.53702       91.32012
H         45.59028       30.75228       88.71172
H         46.09451       33.67635       89.25221
H         48.45459       32.99965       89.40859
H         48.03817       31.28823       89.02770
H         46.66077       31.10203       91.07531
H         46.99204       32.82658       91.49056
N         46.86284       31.89342       86.47367
C         46.95809       32.01935       85.03388
H         46.81910       33.06435       84.68808
H         47.94810       31.65687       84.69198
H         46.16862       31.39220       84.56549
H         46.95758       30.94783       86.86117
Ca        50.92448       29.65075       93.86940
O         50.28543       26.88109       92.47572
H         49.50278       26.36620       92.79260
H         51.04373       26.48712       92.97322
O         47.96186       28.89312       94.03380
H         47.95321       27.90432       94.06145
H         48.27722       29.15423       94.93427

Ca 1.0



