%chk=holoCaM-CaMKII.loop3.water2.frame191.chk
%nprocshared=20
%mem=10GB
%nosave
#b3lyp/svp scf=(tight,noincore,xqc) Test 
#IOP(5/87=12) Density=Current Pop=(MK,readradii) iop(6/33=2) iop(6/42=6)

holoCaM-CaMKII.loop3.water2.frame191 

   0  1 
C         22.57648       66.97832       30.82679
C         23.75339       66.48307       31.61472
O         24.14679       67.15458       32.55406
H         21.70217       67.09925       31.49968
H         22.82567       67.95855       30.36896
H         22.30311       66.27131       30.01533
N         24.33951       65.29251       31.30149
C         25.48972       64.71433       31.99517
C         26.78309       65.40684       31.56178
O         27.55974       64.81637       30.82210
C         25.52992       63.19900       31.67597
C         26.59620       62.38267       32.36708
O         26.91430       61.32631       31.84945
O         27.15218       62.70997       33.55923
H         23.90291       64.73763       30.54875
H         25.33674       64.81341       33.07433
H         25.68113       63.09188       30.57867
H         24.55397       62.72064       31.89382
N         27.07225       66.67760       31.95813
C         28.24271       67.40402       31.48157
C         29.52632       66.73918       31.94387
O         30.32822       66.38812       31.08843
C         28.18191       68.89779       31.87390
C         26.96841       69.58112       31.20257
C         26.97110       71.10440       31.38833
C         25.83402       71.79704       30.60901
N         24.50468       71.45608       31.12053
H         26.43563       67.15572       32.60336
H         28.23578       67.39159       30.36700
H         29.10606       69.38576       31.49213
H         28.14584       69.02684       32.97773
H         26.02983       69.15303       31.60703
H         27.00704       69.37782       30.10962
H         27.93063       71.49747       30.98655
H         26.90970       71.36674       32.46627
H         25.90034       71.53154       29.52968
H         25.97341       72.89732       30.69329
H         23.78757       71.98911       30.57684
H         24.30479       70.43783       31.00495
H         24.42912       71.72543       32.12806
N         29.78844       66.50226       33.26574
C         31.02620       65.84282       33.69791
C         31.20376       64.45260       33.09191
O         32.32501       63.96364       33.07591
C         31.16188       65.76682       35.23369
C         30.12548       64.88676       35.88212
O         28.94275       65.17651       35.82671
O         30.50529       63.78013       36.54846
H         29.10019       66.81424       33.96603
H         31.86087       66.47605       33.32124
H         31.10155       66.78626       35.67019
H         32.16786       65.35619       35.47295
N         30.15569       63.77071       32.55168
C         30.30699       62.52871       31.82053
C         30.83799       61.39251       32.65700
O         31.87765       60.85178       32.30784
H         29.20991       64.16825       32.60979
H         30.97478       62.70816       30.94973
H         29.32080       62.22101       31.41619
N         30.13383       60.92463       33.72772
C         30.50754       59.71145       34.45571
C         29.49703       58.58855       34.22172
O         29.73502       57.48220       34.68735
C         30.69691       59.99329       35.96099
C         29.40445       60.28110       36.69554
N         28.98551       59.45996       37.68828
O         28.73289       61.25728       36.39917
H         29.26362       61.40887       33.98371
H         31.48265       59.33991       34.07213
H         31.40421       60.83980       36.09651
H         31.16987       59.09429       36.41334
H         29.53358       58.62936       37.95742
H         28.10500       59.64910       38.18926
N         28.35234       58.79840       33.50689
C         27.36807       57.78164       33.19834
C         26.01204       58.07881       33.80864
O         25.08120       57.35974       33.48226
H         28.14792       59.72879       33.13383
H         27.68589       56.77335       33.54240
H         27.26472       57.74376       32.09236
N         25.83400       59.05141       34.76010
C         24.56196       59.24092       35.46046
C         24.18226       60.71660       35.53586
O         24.98768       61.55779       35.17965
C         24.68519       58.71589       36.91385
C         25.15351       57.28278       37.03320
C         26.48481       56.93322       36.73668
C         24.27431       56.28542       37.48540
C         26.92158       55.61526       36.87498
C         24.71342       54.96499       37.62251
C         26.03982       54.62624       37.31727
O         26.47886       53.35905       37.45168
H         26.64353       59.59783       35.08495
H         23.75143       58.68114       34.94671
H         23.68911       58.81335       37.39572
H         25.39344       59.34267       37.49503
H         27.19675       57.67830       36.41164
H         23.24774       56.52746       37.73053
H         27.95000       55.36618       36.64435
H         24.02276       54.20765       37.96994
H         25.90355       52.64614       37.76304
N         22.98227       61.09122       36.08730
C         22.70235       62.47077       36.51141
C         21.86465       62.49655       37.79223
O         21.34653       61.47854       38.21962
C         22.03781       63.34853       35.40135
C         20.63733       62.83170       34.99251
C         22.95992       63.49769       34.19280
C         19.92405       63.75598       33.99967
H         22.34873       60.34124       36.39075
H         23.66837       62.93721       36.80434
H         21.91056       64.37054       35.81905
H         19.99723       62.77788       35.89870
H         20.71388       61.81340       34.55533
H         23.93336       63.87689       34.54166
H         23.08836       62.52604       33.67616
H         22.57438       64.24360       33.46988
H         18.90035       63.37627       33.80316
H         19.84946       64.78026       34.41986
H         20.45396       63.79898       33.02641
N         21.70924       63.67822       38.45540
C         20.88954       63.85152       39.65110
C         19.81123       64.89059       39.37400
O         19.71581       65.36218       38.25580
C         21.79436       64.26855       40.82252
O         22.42299       65.49738       40.56660
H         22.19880       64.50698       38.09562
H         20.38812       62.90243       39.93815
H         22.54422       63.46377       41.01231
H         21.20967       64.36161       41.76100
H         23.36490       65.29921       40.32518
N         18.95336       65.29530       40.35334
C         17.93192       66.31885       40.13569
C         18.55278       67.65244       39.75002
O         18.16757       68.21354       38.73310
C         17.08808       66.50250       41.40158
H         19.03165       64.86415       41.28520
H         17.24057       65.98394       39.32980
H         16.29546       67.26087       41.22176
H         16.59718       65.54304       41.66946
H         17.71546       66.83439       42.25577
N         19.52660       68.21386       40.52200
C         20.14087       69.51196       40.24890
C         20.72574       69.58122       38.85388
O         20.39937       70.50857       38.12595
C         21.23906       69.80538       41.27737
H         19.84747       67.68540       41.34870
H         19.36921       70.30835       40.34924
H         22.04237       69.03910       41.22762
H         21.68573       70.80494       41.08525
H         20.80936       69.80714       42.30142
N         21.57533       68.61632       38.40432
C         22.15180       68.62772       37.06202
C         21.05489       68.71506       36.01223
O         21.09618       69.61752       35.18786
C         23.00862       67.37234       36.81090
C         24.24096       67.27432       37.73111
C         25.05987       66.08295       37.33129
O         25.24779       65.16162       38.10902
O         25.54184       66.02259       36.07580
H         21.78599       67.82999       39.03625
H         22.81437       69.51530       36.95029
H         23.36461       67.41197       35.75713
H         22.38183       66.46455       36.92702
H         23.93302       67.18402       38.79348
H         24.86828       68.18428       37.62305
N         20.01981       67.83226       36.01736
C         18.90952       67.87878       35.08888
H         17.97009       68.05844       35.65384
H         19.02412       68.68040       34.33075
H         18.82470       66.90650       34.56417
H         19.99543       67.10864       36.74056
Ca        26.37107       64.17552       35.09521
O         25.75939       61.66508       38.59598
H         24.84607       61.43793       38.90327
H         25.66999       62.56584       38.19757
O         28.24185       63.58397       39.00103
H         29.22132       63.52440       39.13156
H         27.85954       63.11880       39.78715

Ca 1.0



