%chk=holoCaM-CaMKII.loop1.water2.frame347.chk
%nprocshared=20
%mem=10GB
%nosave
#b3lyp/svp scf=(tight,noincore,xqc) Test 
#IOP(5/87=12) Density=Current Pop=(MK,readradii) iop(6/33=2) iop(6/42=6)

holoCaM-CaMKII.loop1.water2.frame347 

   0  1 
C         26.32172       75.50202       47.20282
C         26.55615       76.72221       48.03681
O         25.58528       77.36502       48.39905
H         25.80199       75.78510       46.26620
H         27.27364       74.99065       46.95382
H         25.68076       74.79511       47.77369
N         27.81420       77.07219       48.43036
C         28.06789       78.15879       49.36682
C         27.88557       79.53896       48.70706
O         28.84510       80.06870       48.16320
C         29.48729       78.00094       49.98289
C         29.62179       78.80576       51.24025
O         28.52049       79.40396       51.72933
O         30.67702       78.83766       51.84895
H         28.59911       76.46440       48.14955
H         27.34150       78.01990       50.20006
H         30.26602       78.26979       49.23546
H         29.65548       76.94315       50.28250
N         26.66098       80.14204       48.64768
C         26.40047       81.36990       47.88681
C         26.99822       82.65776       48.46717
O         26.96347       83.65137       47.75382
C         24.87727       81.58749       47.71056
C         24.14165       80.47821       46.93112
C         24.64006       80.34769       45.47981
C         23.75765       79.43436       44.61287
N         23.75074       78.04699       45.07673
H         25.86360       79.64927       49.06711
H         26.85480       81.24174       46.88207
H         24.69898       82.54035       47.16511
H         24.41299       81.68531       48.71734
H         23.06692       80.76150       46.90815
H         24.22462       79.50737       47.45933
H         25.68427       79.97027       45.45950
H         24.62141       81.35520       45.01005
H         24.15268       79.46174       43.57275
H         22.71779       79.82924       44.59175
H         23.32131       77.97432       46.02600
H         23.17774       77.47522       44.41457
H         24.72531       77.66962       45.09105
N         27.52804       82.75066       49.72145
C         28.13019       83.99241       50.24895
C         29.61581       83.81250       50.57297
O         30.24735       84.79106       50.94776
C         27.33184       84.58040       51.45645
C         27.25536       83.67325       52.64765
O         26.66308       84.00109       53.66311
O         27.79093       82.46019       52.52842
H         27.50719       81.90690       50.30615
H         28.09755       84.78618       49.47232
H         26.29501       84.80684       51.12604
H         27.80608       85.53493       51.77304
N         30.25860       82.61940       50.39883
C         31.69368       82.45176       50.55294
C         32.18167       82.65842       51.96500
O         33.03769       83.50646       52.17355
H         29.73925       81.79482       50.07157
H         32.21617       83.14625       49.85848
H         31.96734       81.41526       50.25801
N         31.71799       81.87498       52.97822
C         32.23693       81.92979       54.34260
C         32.83893       80.58293       54.76046
O         33.13502       80.41681       55.93577
C         31.13512       82.42840       55.30932
C         29.99987       81.48224       55.54735
O         30.01363       80.36292       55.07524
O         28.96923       81.85977       56.32596
H         30.97781       81.19056       52.76657
H         33.04707       82.68645       54.42519
H         30.72851       83.38191       54.90726
H         31.58564       82.64030       56.30230
N         33.10112       79.59368       53.84846
C         33.70770       78.32014       54.21514
C         32.74145       77.32980       54.84593
O         33.20531       76.29466       55.30149
H         32.95437       79.77032       52.84479
H         34.57251       78.51446       54.88591
H         34.10784       77.82535       53.30337
N         31.39187       77.52820       54.83726
C         30.41279       76.57518       55.37375
C         29.05885       76.68683       54.66569
O         28.84893       77.58585       53.86609
C         30.22340       76.76299       56.91170
C         31.29602       76.06460       57.73927
O         30.21707       78.12127       57.26579
H         31.04400       78.35257       54.33795
H         30.73363       75.53801       55.12783
H         29.26931       76.29229       57.23727
H         29.57016       78.57301       56.67583
H         31.28989       74.97569       57.51901
H         32.30089       76.48595       57.55470
H         31.06513       76.19999       58.81812
N         28.10975       75.72622       54.87583
C         26.83387       75.65979       54.16407
C         25.69628       75.62578       55.18273
O         25.76021       74.82186       56.10364
C         26.79105       74.39234       53.24879
C         28.07415       74.28107       52.37686
C         25.53157       74.43843       52.35470
C         28.12656       73.02044       51.50708
H         28.33045       74.95481       55.52535
H         26.71839       76.53592       53.49035
H         26.74758       73.48736       53.89505
H         28.95888       74.22885       53.04674
H         28.18241       75.17674       51.72724
H         25.57662       75.31364       51.66914
H         25.42798       73.51910       51.74536
H         24.61087       74.51432       52.96441
H         28.01755       72.11083       52.13581
H         27.33819       73.02822       50.72799
H         29.10580       72.97174       50.98546
N         24.59208       76.41673       55.04210
C         23.45035       76.38787       55.96131
C         22.27869       75.68346       55.31235
O         22.37793       75.30330       54.16023
C         23.01615       77.82423       56.37074
C         24.12279       78.60949       57.06700
O         22.52121       78.54441       55.26671
H         24.51961       76.99960       54.20098
H         23.70945       75.81185       56.87639
H         22.18616       77.74821       57.10427
H         23.28799       78.83393       54.70918
H         24.47408       78.07126       57.97147
H         24.96089       78.75027       56.36191
H         23.73956       79.60881       57.36660
N         21.12435       75.46773       56.00091
C         19.93860       74.87536       55.38528
C         19.38524       75.78417       54.29518
O         18.91807       75.27407       53.28667
C         18.84232       74.57041       56.42885
C         19.30656       73.52294       57.44759
O         18.46543       75.74691       57.10090
H         21.08670       75.74813       56.99208
H         20.21443       73.89799       54.92603
H         17.97237       74.12483       55.88582
H         17.48587       75.85699       56.98528
H         20.17712       73.88385       58.03350
H         18.48123       73.29178       58.15283
H         19.59430       72.58371       56.92714
N         19.44921       77.14439       54.41541
C         18.99678       78.07343       53.38006
C         19.69302       77.76506       52.06621
O         19.03209       77.55194       51.05976
C         19.30884       79.53582       53.81130
C         18.79845       80.57479       52.79328
C         19.07807       82.03621       53.19301
C         20.57324       82.40493       53.18098
N         20.75918       83.83203       53.45245
H         19.87091       77.53777       55.27062
H         17.89635       77.96963       53.25200
H         20.40408       79.65158       53.94590
H         18.82179       79.73588       54.79062
H         17.69761       80.45004       52.70645
H         19.24711       80.39506       51.79260
H         18.64004       82.24771       54.19277
H         18.56564       82.68362       52.44824
H         21.00203       82.17229       52.18064
H         21.12535       81.81657       53.94441
H         20.38103       84.07382       54.39702
H         21.77987       84.05865       53.42759
H         20.27345       84.40427       52.72332
N         21.04846       77.73069       52.02806
C         21.84209       77.49934       50.82792
C         21.54239       76.13397       50.22436
O         21.20824       76.07184       49.04925
C         23.33987       77.68659       51.17058
C         23.60671       79.16131       51.56340
C         25.02469       79.43038       51.96780
O         25.67164       80.28695       51.39264
O         25.56679       78.79621       53.01934
H         21.54139       77.88548       52.91878
H         21.59305       78.26796       50.06191
H         23.95882       77.43845       50.28721
H         23.62237       76.99788       51.99617
H         22.97303       79.46393       52.41916
H         23.34072       79.81404       50.70266
N         21.60015       75.00059       50.97181
C         21.28806       73.69193       50.43855
H         20.25584       73.68167       50.02715
H         22.01203       73.42410       49.64135
H         21.34873       72.93010       51.24624
H         21.84413       75.06772       51.96016
Ca        27.92076       80.53325       53.55750
O         25.27167       81.31354       55.17510
H         24.29169       81.36746       55.30264
H         25.42165       81.67293       54.26564
O         27.27559       79.15380       56.82847
H         27.43404       78.79334       57.73698
H         26.97982       80.08542       56.97813

Ca 1.0



