%chk=holoCaM.loop1.water2.frame349.chk
%nprocshared=20
%mem=10GB
%nosave
#b3lyp/svp scf=(tight,noincore,xqc) Test 
#IOP(5/87=12) Density=Current Pop=(MK,readradii) iop(6/33=2) iop(6/42=6)

holoCaM.loop1.water2.frame349 

   0  1 
C        109.62216        7.70543       88.59878
C        109.51128        7.37885       90.05393
O        110.47964        6.87874       90.61045
H        110.45252        8.42746       88.44827
H        109.84373        6.77511       88.03491
H        108.68313        8.14877       88.20966
N        108.36877        7.64385       90.75299
C        108.27219        7.34046       92.17031
C        108.34699        5.83116       92.38023
O        107.48065        5.11110       91.90368
C        106.99501        7.92051       92.79998
C        107.09050        7.72499       94.27804
O        108.14587        8.24230       94.93166
O        106.28574        7.02803       94.86876
H        107.57573        8.09931       90.27541
H        109.13186        7.85287       92.66088
H        106.08801        7.43028       92.38236
H        106.92866        9.01173       92.60084
N        109.40324        5.29444       93.04824
C        109.73124        3.87425       93.04366
C        109.19600        3.10722       94.25256
O        109.24859        1.88642       94.21646
C        111.27367        3.77248       92.96299
C        111.82281        2.37099       92.67746
C        113.35686        2.34449       92.55232
C        113.89430        3.24644       91.42537
N        115.33057        3.05412       91.23867
H        110.13957        5.94929       93.32106
H        109.30606        3.42861       92.11682
H        111.72183        4.17087       93.90261
H        111.57999        4.43283       92.12594
H        111.37436        1.99704       91.73230
H        111.54954        1.67954       93.49940
H        113.64614        1.29323       92.33831
H        113.82318        2.64360       93.51721
H        113.71209        4.31560       91.66946
H        113.37074        3.00498       90.47429
H        115.66305        3.69362       90.48091
H        115.84415        3.27634       92.12204
H        115.52222        2.06631       90.95374
N        108.71935        3.72920       95.37181
C        108.31912        2.99577       96.58251
C        106.86244        3.24174       96.97008
O        106.45116        2.73701       98.00616
C        109.32314        3.29251       97.72973
C        109.34873        4.72903       98.15075
O        108.37944        5.54077       97.71323
O        110.24679        5.15680       98.85650
H        108.70159        4.75887       95.39416
H        108.39910        1.89947       96.41882
H        110.33197        3.02498       97.34403
H        109.12258        2.65738       98.61958
N        105.99514        3.91329       96.15364
C        104.56322        3.93641       96.41212
C        104.09120        4.94943       97.43221
O        102.92881        4.86039       97.80227
H        106.31822        4.26160       95.23970
H        104.23859        2.91551       96.70982
H        104.02290        4.17117       95.46922
N        104.85651        6.00484       97.83910
C        104.31768        7.07702       98.67736
C        103.91203        8.28870       97.83916
O        103.48896        9.28007       98.41699
C        105.26400        7.40782       99.85360
C        106.62059        7.90649       99.45742
O        107.72172        7.24375       99.85887
O        106.73802        8.93955       98.82246
H        105.79833        6.12543       97.43976
H        103.37040        6.75237       99.16138
H        105.38986        6.49187      100.47011
H        104.79028        8.18252      100.49534
N        103.90414        8.24590       96.47113
C        103.37617        9.31764       95.64240
C        104.19068       10.59181       95.64931
O        103.71622       11.55492       95.06187
H        104.17674        7.38500       95.98379
H        102.34287        9.54294       95.98729
H        103.30763        8.97216       94.58774
N        105.40287       10.69638       96.27100
C        106.14743       11.95486       96.35886
C        107.50145       11.80060       95.66071
O        107.80049       10.70236       95.22800
C        106.25930       12.34039       97.86240
C        106.45239       13.83787       98.10372
O        105.07102       11.98423       98.52866
H        105.80817        9.86727       96.72563
H        105.57530       12.75027       95.83449
H        107.11558       11.78638       98.31191
H        105.26631       11.17547       99.07286
H        105.58915       14.39485       97.67530
H        106.47494       14.03093       99.19672
H        107.39008       14.23278       97.68631
N        108.35437       12.84182       95.45487
C        109.61892       12.71713       94.72712
C        110.78007       13.17391       95.61272
O        110.75595       14.28895       96.11619
C        109.51146       13.52427       93.39716
C        108.37509       12.98269       92.47674
C        110.84023       13.57326       92.62365
C        108.60619       11.57760       91.89426
H        108.07921       13.78414       95.75634
H        109.82087       11.66429       94.44088
H        109.24972       14.57337       93.65943
H        108.24750       13.67856       91.61953
H        107.41539       12.97948       93.03559
H        111.20042       12.55536       92.37167
H        110.71284       14.15401       91.68503
H        111.61992       14.08199       93.22264
H        107.73210       11.28950       91.27260
H        109.49877       11.55848       91.23546
H        108.72457       10.81183       92.68517
N        111.86812       12.36374       95.77881
C        113.09637       12.72638       96.48151
C        114.12334       13.18089       95.45686
O        113.79628       13.24325       94.28388
C        113.65594       11.50935       97.27930
C        112.69268       10.99548       98.35728
O        114.04483       10.47863       96.40186
H        111.89244       11.48869       95.25121
H        112.91476       13.57032       97.18194
H        114.56909       11.82002       97.82726
H        113.33900        9.78562       96.37497
H        113.16653       10.14740       98.89943
H        112.45989       11.79859       99.08514
H        111.75657       10.63010       97.89137
N        115.39075       13.51758       95.81420
C        116.40807       13.89457       94.83336
C        116.67575       12.73842       93.86829
O        116.57425       12.93247       92.66604
C        117.71422       14.35989       95.52551
C        117.47936       15.61857       96.37408
O        118.24158       13.33861       96.33222
H        115.64185       13.49055       96.81310
H        116.04105       14.76541       94.24255
H        118.43995       14.61882       94.71846
H        119.20470       13.54208       96.46132
H        118.43886       15.96091       96.81458
H        117.07136       16.43721       95.74382
H        116.77015       15.42347       97.20504
N        116.99634       11.50025       94.34137
C        117.26804       10.33250       93.49796
C        116.13642       10.03061       92.52218
O        116.40493        9.90899       91.33459
C        117.65987        9.09895       94.36225
C        116.64839        8.63337       95.43638
C        117.27298        7.53760       96.32218
C        116.43483        7.19144       97.56768
N        115.16022        6.55414       97.24086
H        117.05051       11.39195       95.36185
H        118.16874       10.55007       92.88045
H        118.59655        9.38168       94.89099
H        117.89909        8.24359       93.69225
H        115.71762        8.26179       94.96401
H        116.40147        9.48066       96.10278
H        118.24446        7.91962       96.70601
H        117.47502        6.62294       95.72354
H        116.25425        8.11300       98.16559
H        117.02789        6.49297       98.19998
H        114.55567        7.19579       96.68140
H        115.33022        5.66555       96.71659
H        114.66366        6.32564       98.13314
N        114.84761        9.93129       92.94035
C        113.71819        9.64912       92.04696
C        113.62947       10.70745       90.95183
O        113.48737       10.34977       89.79128
C        112.39820        9.54892       92.85486
C        112.47251        8.39752       93.88970
C        111.29808        8.32155       94.82756
O        110.90840        9.38929       95.54069
O        110.76531        7.25151       95.04776
H        114.66828       10.10235       93.93778
H        113.86192        8.65888       91.55964
H        111.54004        9.36648       92.17033
H        112.22920       10.51728       93.35813
H        113.35367        8.52649       94.53449
H        112.60203        7.42631       93.36264
N        113.79235       12.02608       91.24885
C        113.80634       13.09459       90.26966
H        114.80514       13.58336       90.27704
H        113.60073       12.73247       89.24186
H        113.04544       13.85538       90.54048
H        113.96826       12.28724       92.21970
Ca       108.54592        7.63281       97.02626
O        109.32529       10.57844       98.78319
H        109.70364       11.48950       98.86696
H        108.99681       10.36305       99.69179
O        111.00623        8.17234       99.13180
H        111.59933        7.38113       99.16198
H        111.05930        8.55623      100.04296

Ca 1.0



