%chk=holoCaM.loop3.water3.frame253.chk
%nprocshared=20
%mem=10GB
%nosave
#b3lyp/svp scf=(tight,noincore,xqc) Test 
#IOP(5/87=12) Density=Current Pop=(MK,readradii) iop(6/33=2) iop(6/42=6)

holoCaM.loop3.water3.frame253 

   0  1 
C         35.07266       73.76899       72.81966
C         33.92323       74.50811       72.19042
O         32.82483       73.97466       72.14033
H         36.00053       74.38179       72.81790
H         34.82558       73.52816       73.87502
H         35.27335       72.83025       72.26444
N         34.10830       75.76553       71.70702
C         33.04326       76.59282       71.14608
C         32.48095       75.96885       69.86679
O         33.26427       75.54513       69.02813
C         33.61359       78.00571       70.87303
C         32.57566       79.07507       70.71029
O         31.27509       78.81159       70.88278
O         32.92873       80.22105       70.51038
H         35.05447       76.17169       71.78513
H         32.25116       76.69533       71.92180
H         34.28976       77.97694       69.99157
H         34.20341       78.33168       71.75770
N         31.13483       75.91524       69.63581
C         30.53071       75.28622       68.45891
C         30.08627       76.31260       67.41785
O         30.40534       76.09639       66.25622
C         29.38709       74.32371       68.86038
C         29.91815       73.14087       69.69776
C         28.85721       72.09890       70.10563
C         28.17125       71.38961       68.93025
N         27.25245       70.35961       69.42059
H         30.50587       76.35415       70.32010
H         31.28120       74.65107       67.93453
H         28.94037       73.92031       67.92712
H         28.59797       74.86837       69.41840
H         30.37143       73.54157       70.63022
H         30.71310       72.61633       69.12416
H         28.07217       72.56456       70.72063
H         29.36937       71.33324       70.72883
H         28.93728       70.91598       68.27862
H         27.59532       72.12555       68.32902
H         26.77676       69.90486       68.60840
H         27.78125       69.63040       69.95282
H         26.52592       70.78572       70.04162
N         29.42474       77.46944       67.73161
C         29.08766       78.47802       66.71550
C         30.02939       79.67990       66.74743
O         29.82655       80.59758       65.96344
C         27.59662       78.89049       66.76581
C         27.15942       79.66797       67.97581
O         28.00833       79.94156       68.97804
O         26.00985       80.07188       68.04164
H         29.23036       77.67564       68.71951
H         29.22270       78.04719       65.69968
H         26.96400       77.98252       66.67348
H         27.39102       79.53380       65.88174
N         31.13217       79.71082       67.55139
C         32.12867       80.76920       67.48545
C         31.70131       82.10177       68.07326
O         32.51730       83.01227       68.03449
H         31.34485       78.90591       68.15590
H         32.44397       80.90463       66.42769
H         33.03051       80.44247       68.04265
N         30.47488       82.31582       68.63796
C         30.09142       83.61838       69.18494
C         30.94221       84.05247       70.37866
O         30.92642       85.23373       70.69602
C         28.59214       83.68603       69.57205
C         28.15224       82.71717       70.64872
N         26.93514       82.85114       71.22122
O         28.88240       81.80989       71.00915
H         29.78985       81.55415       68.64539
H         30.24934       84.36346       68.37322
H         27.95514       83.51866       68.67755
H         28.39450       84.71730       69.93726
H         26.30182       83.61288       70.94017
H         26.63597       82.20650       71.96744
N         31.66463       83.15903       71.11240
C         32.49880       83.52736       72.24750
C         32.00795       82.94493       73.55930
O         32.68372       83.15122       74.55745
H         31.61272       82.16389       70.87160
H         32.55248       84.63020       72.37413
H         33.52930       83.16191       72.05011
N         30.83620       82.24739       73.65540
C         30.30559       81.72060       74.90539
C         30.11716       80.21535       74.83449
O         30.18048       79.62867       73.76299
C         28.94802       82.37862       75.24321
C         29.06180       83.84744       75.58309
C         29.43399       84.80483       74.62113
C         28.77773       84.27348       76.89242
C         29.53506       86.15563       74.97126
C         28.87958       85.62143       77.23903
C         29.26205       86.56794       76.27997
O         29.36758       87.87211       76.60456
H         30.26990       82.10213       72.81918
H         31.01709       81.91677       75.73735
H         28.52587       81.84837       76.12449
H         28.22693       82.24255       74.40732
H         29.64092       84.51705       73.59956
H         28.48224       83.56053       77.65223
H         29.82542       86.88327       74.22377
H         28.66179       85.92668       78.25464
H         29.19019       88.19358       77.50038
N         29.93729       79.52498       75.99673
C         29.77817       78.07894       76.09772
C         28.57735       77.78593       76.99886
O         28.50107       78.32349       78.09495
C         31.09847       77.44360       76.62528
C         32.24121       77.72068       75.60190
C         30.92566       75.92421       76.83345
C         33.62010       77.22372       76.03160
H         29.98677       80.05477       76.88112
H         29.61019       77.62593       75.09795
H         31.35354       77.90640       77.60376
H         32.34357       78.81421       75.44572
H         31.98809       77.25681       74.62135
H         30.10958       75.71142       77.55354
H         30.69566       75.42137       75.87094
H         31.84118       75.47102       77.26132
H         34.36259       77.49979       75.25203
H         33.91545       77.70082       76.98906
H         33.64532       76.12110       76.13569
N         27.62361       76.89888       76.60249
C         26.42418       76.55205       77.35282
C         26.52340       75.12766       77.88397
O         27.53484       74.47400       77.67385
C         25.20109       76.71048       76.42368
O         25.29529       75.81692       75.34497
H         27.76554       76.40477       75.72424
H         26.30007       77.22854       78.22571
H         25.16215       77.75161       76.03521
H         24.26630       76.51340       76.99303
H         24.39654       75.77313       74.92669
N         25.49509       74.58605       78.59732
C         25.50332       73.22758       79.13725
C         25.66680       72.19603       78.03980
O         26.52002       71.32977       78.16393
C         24.20215       72.95265       79.89668
H         24.66191       75.17001       78.76550
H         26.33795       73.12414       79.86677
H         23.32306       73.03740       79.22276
H         24.22598       71.92971       80.33052
H         24.08968       73.68119       80.72729
N         24.88706       72.24329       76.92449
C         25.02427       71.31602       75.80615
C         26.42839       71.35670       75.23128
O         27.04017       70.30805       75.08148
C         24.01239       71.66727       74.70762
H         24.18401       72.99601       76.85740
H         24.79681       70.28158       76.14789
H         22.97969       71.60575       75.11241
H         24.18217       72.69598       74.32249
H         24.09799       70.95026       73.86284
N         27.00413       72.54606       74.89773
C         28.33241       72.65496       74.29306
C         29.42831       72.07702       75.18403
O         30.49454       71.76744       74.67024
C         28.65600       74.12791       73.96176
C         27.64386       74.72994       72.96187
C         27.89788       76.17020       72.66250
O         28.24215       76.52804       71.42502
O         27.78790       77.02834       73.51689
H         26.46067       73.40123       75.07943
H         28.32046       72.06825       73.34766
H         29.67942       74.20738       73.53076
H         28.65166       74.68405       74.91308
H         26.59829       74.64159       73.30652
H         27.73735       74.17698       72.01824
N         29.24608       71.90532       76.52236
C         30.24043       71.29831       77.37913
H         31.18938       71.87201       77.33942
H         29.87404       71.28485       78.42897
H         30.41959       70.24961       77.05948
H         28.37515       72.21965       76.95839
Ca        29.09288       78.55285       71.16058
O         25.68041       79.37063       70.98475
H         24.94828       79.00216       70.43019
H         25.71119       80.32960       70.74320
O         26.48298       77.02559       69.36074
H         26.08680       76.44299       70.05579
H         26.84014       76.40101       68.68219
O         26.87915       79.92442       73.89504
H         26.08386       80.26615       73.41610
H         26.64123       80.00612       74.85233

Ca 1.0



