%chk=holoCaM-CaMKII.loop2.water2.frame339.chk
%nprocshared=20
%mem=10GB
%nosave
#b3lyp/svp scf=(tight,noincore,xqc) Test 
#IOP(5/87=12) Density=Current Pop=(MK,readradii) iop(6/33=2) iop(6/42=6)

holoCaM-CaMKII.loop2.water2.frame339 

   -2  1 
C         34.74335       58.13315       70.67916
C         35.33072       59.51064       70.70521
O         36.19844       59.81483       69.89882
H         33.65917       58.21728       70.44034
H         35.22240       57.51159       69.89425
H         34.85793       57.64731       71.66822
N         34.83394       60.42854       71.57541
C         35.15692       61.84080       71.48358
C         36.59372       62.18760       71.87609
O         37.02228       61.80968       72.95673
C         34.15128       62.67086       72.32223
C         34.10331       64.06727       71.80101
O         34.28187       64.21682       70.47689
O         33.69798       64.98613       72.49136
H         34.08063       60.13140       72.21566
H         34.99409       62.08402       70.41264
H         34.39102       62.62972       73.40704
H         33.12242       62.28073       72.17677
N         37.36686       62.96431       71.05563
C         38.74797       63.36150       71.33397
C         38.94355       64.88377       71.44895
O         40.07321       65.28838       71.69175
C         39.64875       62.81161       70.22011
H         36.95053       63.29282       70.18049
H         39.08802       62.91465       72.29375
H         39.54640       61.70749       70.15602
H         39.36994       63.25236       69.23880
H         40.71596       63.04752       70.42286
N         37.92043       65.78611       71.31472
C         38.11845       67.24092       71.46053
C         36.89254       68.03033       71.96082
O         37.05705       69.21991       72.19883
C         38.65751       67.87968       70.14879
C         37.72205       67.75583       68.97649
O         36.61151       67.02991       69.07605
O         37.98410       68.28631       67.91149
H         36.98858       65.41603       71.11241
H         38.88437       67.40236       72.25414
H         39.62881       67.42402       69.86666
H         38.82954       68.96398       70.32907
N         35.66335       67.47749       72.18587
C         34.54621       68.23810       72.73332
C         33.92060       69.24176       71.77924
O         33.10560       70.02903       72.23943
H         35.51174       66.47992       72.04002
H         34.88613       68.74113       73.66399
H         33.72674       67.54531       73.02052
N         34.19398       69.25331       70.44170
C         33.56129       70.18077       69.49803
C         32.06922       69.88765       69.21775
O         31.50064       70.56168       68.36977
C         34.37332       70.24549       68.17705
C         34.38643       68.99797       67.33366
N         35.00913       69.00400       66.13568
O         33.83180       67.98373       67.71096
H         34.89262       68.59290       70.07952
H         33.64474       71.20896       69.91520
H         35.42579       70.51471       68.41529
H         33.95009       71.06176       67.55305
H         35.48866       69.84785       65.79274
H         34.99484       68.16603       65.54107
N         31.36166       68.93353       69.89484
C         29.94694       68.64450       69.67925
C         29.64732       67.71837       68.50615
O         28.48785       67.36273       68.35163
H         31.80386       68.44072       70.67447
H         29.36401       69.58934       69.61253
H         29.57739       68.10149       70.57642
N         30.61228       67.27944       67.64744
C         30.36735       66.36469       66.52766
C         31.32514       65.17136       66.55109
O         32.25983       65.16906       67.33749
C         30.52401       67.14778       65.19765
C         29.40015       68.17553       65.04316
O         31.75647       67.82461       65.14935
H         31.56048       67.63692       67.76508
H         29.33818       65.94795       66.58112
H         30.43958       66.46250       64.32498
H         32.47284       67.14010       65.11187
H         28.41438       67.66225       65.03953
H         29.41748       68.91624       65.87034
H         29.51452       68.71983       64.08228
N         31.17788       64.14438       65.65391
C         32.13373       63.04321       65.51932
C         32.98812       63.33491       64.29626
O         32.46806       63.37292       63.18960
C         31.42832       61.64708       65.40067
C         30.61498       61.30878       66.67672
C         32.46504       60.53514       65.11493
C         29.82467       59.99591       66.58036
H         30.40648       64.19564       64.97183
H         32.80366       63.01054       66.40382
H         30.72804       61.68693       64.53684
H         29.88364       62.12213       66.86653
H         31.29580       61.23534       67.54904
H         33.18165       60.44037       65.95675
H         31.98172       59.55428       64.94006
H         33.02667       60.74514       64.18537
H         29.23832       59.84554       67.51104
H         29.12428       60.02548       65.71941
H         30.49241       59.11595       66.47879
N         34.32052       63.58408       64.44317
C         35.21939       63.88577       63.33085
C         35.53884       62.61677       62.55454
O         35.07752       61.56129       62.94978
C         36.53553       64.50320       63.85438
C         36.31909       65.77457       64.63142
O         35.64156       65.76205       65.79573
O         36.79194       66.82377       64.22556
H         34.70501       63.58337       65.39409
H         34.73504       64.63447       62.66593
H         37.18403       64.74251       62.98538
H         37.07038       63.77897       64.50481
N         36.32117       62.63337       61.43434
C         36.66336       61.41077       60.71006
C         37.60215       60.50812       61.51762
O         37.28377       59.33282       61.62320
C         37.25159       61.69174       59.31109
C         37.33938       60.40514       58.51837
C         36.16260       59.74048       58.12227
C         38.58464       59.84883       58.18248
C         36.23186       58.54360       57.40596
C         38.64878       58.64521       57.47134
C         37.47406       57.99441       57.08271
H         36.64911       63.53920       61.06842
H         35.70952       60.86943       60.52033
H         38.24458       62.16463       59.39036
H         36.59869       62.39662       58.75282
H         35.18975       60.15034       58.36452
H         39.50330       60.33589       58.48385
H         35.32132       58.04149       57.10416
H         39.60975       58.21424       57.22363
H         37.52519       57.06417       56.53195
N         38.76404       60.94393       62.11685
C         39.61043       60.10077       62.96263
C         38.80504       59.34945       64.00807
O         38.97684       58.15175       64.17972
C         40.53842       61.11090       63.66520
C         40.69314       62.17532       62.61062
C         39.26256       62.30812       62.10043
H         40.19951       59.40720       62.32232
H         40.00976       61.60645       64.51275
H         41.48355       60.67965       64.05890
H         41.14824       63.12856       62.95684
H         41.32261       61.75105       61.79563
H         38.64433       62.91703       62.78903
H         39.30754       62.77722       61.10400
N         37.87175       60.03238       64.72041
C         37.01334       59.46971       65.75598
C         36.11516       58.38412       65.17668
O         35.97435       57.33644       65.79038
C         36.17333       60.60081       66.39915
C         37.07799       61.70134       67.01266
C         36.32374       62.86432       67.58135
O         37.00214       63.97429       67.92910
O         35.11028       62.84218       67.69369
H         37.75072       61.02455       64.47560
H         37.63555       59.03547       66.56971
H         35.52488       60.17300       67.19492
H         35.52344       61.05993       65.62294
H         37.72882       62.13972       66.23549
H         37.73901       61.27520       67.79747
N         35.52107       58.55735       63.96352
C         34.68608       57.57758       63.30097
H         33.70939       58.04201       63.04866
H         35.17529       57.26088       62.35370
H         34.50756       56.68014       63.92636
H         35.70294       59.42055       63.45179
Ca        34.76622       65.87167       69.13836
O         32.28421       63.07577       69.05673
H         31.84930       62.92896       69.93203
H         32.91358       62.31911       68.95680
O         32.09730       65.98132       69.97822
H         31.22693       65.95182       70.44363
H         32.70850       66.43334       70.61145

Ca 1.0



