%chk=holoCaM-CaMKII.loop4.water2.frame109.chk
%nprocshared=20
%mem=10GB
%nosave
#b3lyp/svp scf=(tight,noincore,xqc) Test 
#IOP(5/87=12) Density=Current Pop=(MK,readradii) iop(6/33=2) iop(6/42=6)

holoCaM-CaMKII.loop4.water2.frame109 

   -3  1 
C         38.67677       39.72751       68.76733
C         39.70052       40.12474       69.78559
O         39.39483       40.89595       70.68159
H         37.70565       40.22680       68.96591
H         39.03250       40.01962       67.75638
H         38.53275       38.62691       68.79748
N         40.95854       39.62148       69.69746
C         42.02838       39.94889       70.63010
C         42.34174       41.44081       70.58214
O         42.54982       41.97938       69.50412
C         43.27196       39.11970       70.27350
C         44.39115       39.25429       71.25733
O         45.42012       38.64887       71.05053
O         44.28234       40.00342       72.36656
H         41.15724       38.96339       68.92658
H         41.71495       39.64491       71.65567
H         43.63778       39.41128       69.26552
H         42.99400       38.04241       70.25212
N         42.42219       42.15425       71.73847
C         42.65823       43.59366       71.81836
C         44.08157       43.86760       72.29756
O         44.74254       44.71398       71.71197
C         41.58410       44.24637       72.74760
C         40.15980       43.92081       72.21735
C         41.80193       45.76623       72.87105
C         39.01492       44.45945       73.07705
H         42.31068       41.64187       72.62342
H         42.55605       44.06565       70.81488
H         41.68942       43.82209       73.76647
H         40.03440       42.81989       72.19298
H         40.04260       44.30984       71.18247
H         42.80922       45.98598       73.28122
H         41.69470       46.26121       71.88352
H         41.07946       46.21365       73.58373
H         38.04754       44.11780       72.64981
H         39.09631       44.07910       74.11616
H         39.00016       45.56757       73.08483
N         44.63257       43.16513       73.32717
C         45.97165       43.41465       73.86602
C         47.05382       42.52576       73.25448
O         48.18403       42.58860       73.71862
C         45.90869       43.38128       75.41032
C         45.44333       42.07549       76.00370
O         45.38833       40.94475       75.27223
O         45.06483       42.05334       77.16350
H         44.07652       42.40997       73.74744
H         46.29015       44.45043       73.61217
H         45.16203       44.15547       75.69669
H         46.87760       43.67265       75.87026
N         46.82490       41.77591       72.13506
C         47.88399       41.08161       71.41031
C         48.45215       39.84752       72.08940
O         49.36699       39.26288       71.52595
H         45.89486       41.79423       71.69631
H         48.70198       41.80398       71.19827
H         47.47932       40.74394       70.43085
N         47.96252       39.36447       73.26620
C         48.46602       38.15405       73.92783
C         48.13904       36.83404       73.19610
O         48.43257       35.78082       73.74456
C         47.96249       38.11409       75.39293
C         46.47066       38.03360       75.58157
O         45.97138       38.01559       76.83094
O         45.70655       38.00840       74.63150
H         47.22033       39.89909       73.73457
H         49.57294       38.23147       74.01235
H         48.31611       39.03697       75.90317
H         48.42653       37.24788       75.91152
N         47.57522       36.80277       71.95441
C         47.26887       35.59288       71.20377
C         46.03937       34.83003       71.66702
O         45.69853       33.86770       70.99238
H         47.42976       37.67681       71.45355
H         48.15923       34.92887       71.17168
H         47.04534       35.89708       70.15697
N         45.31534       35.17347       72.77209
C         44.10801       34.46209       73.19703
C         42.92685       35.41387       73.31773
O         43.10378       36.61573       73.15570
C         44.39604       33.72378       74.51927
C         45.40124       32.58290       74.27090
C         45.75809       31.84065       75.52838
N         46.45406       32.45085       76.51481
O         45.44445       30.66536       75.64541
H         45.63316       35.95454       73.35606
H         43.80786       33.70691       72.43733
H         43.46282       33.27039       74.91795
H         44.78117       34.44759       75.27171
H         46.34176       32.96796       73.82340
H         44.93854       31.87430       73.54763
H         46.75175       33.43266       76.41948
H         46.71770       31.93191       77.36545
N         41.66713       34.92542       73.53955
C         40.47397       35.76865       73.57535
C         39.74710       35.56445       74.89731
O         39.24711       34.47300       75.13921
C         39.53194       35.42518       72.38084
C         38.34810       36.40502       72.30211
C         40.27990       35.43834       71.03796
H         41.53950       33.90528       73.63355
H         40.76829       36.83724       73.47589
H         39.13310       34.39478       72.51876
H         37.67180       36.12550       71.46586
H         37.75154       36.38583       73.23455
H         38.71084       37.44195       72.13067
H         41.09461       34.68353       71.03681
H         39.58476       35.16802       70.21353
H         40.71283       36.43985       70.83247
N         39.66076       36.57082       75.81132
C         38.94602       36.43873       77.08078
C         37.43706       36.45551       76.83180
O         37.03032       36.67096       75.70180
C         39.36822       37.60373       78.01316
C         38.89731       37.46200       79.43879
N         39.29948       36.41791       80.19883
O         38.16064       38.30637       79.92199
H         40.15126       37.44989       75.60875
H         39.26045       35.48276       77.55259
H         39.00305       38.55933       77.58224
H         40.47802       37.65183       78.05170
H         39.93472       35.70156       79.81983
H         38.98074       36.33184       81.17525
N         36.53935       36.25097       77.83737
C         35.09515       36.37061       77.64299
C         34.72067       37.79919       77.28040
O         34.04677       37.99609       76.27928
C         34.33548       35.95349       78.92072
C         32.83655       36.10163       78.75294
C         32.14189       35.36176       77.77843
C         32.12322       36.99986       79.56469
C         30.76174       35.52367       77.61798
C         30.74416       37.15945       79.40251
C         30.05857       36.42221       78.42693
O         28.72895       36.56975       78.25779
H         36.88972       36.00467       78.77315
H         34.77892       35.68178       76.82791
H         34.68730       36.58090       79.76884
H         34.57051       34.89512       79.16492
H         32.66586       34.66287       77.13909
H         32.63467       37.58424       80.31912
H         30.23833       34.95178       76.86170
H         30.21087       37.85901       80.03366
H         28.20679       37.18251       78.79529
N         35.11724       38.84349       78.06511
C         34.75365       40.23518       77.80064
C         35.12049       40.64584       76.38793
O         34.33512       41.32127       75.73788
C         35.37000       41.19010       78.85584
C         36.90026       41.34126       78.77435
C         37.42510       42.16319       79.91779
O         37.05409       43.31585       80.07330
O         38.31652       41.63018       80.77583
H         35.70417       38.63466       78.88625
H         33.64991       40.32448       77.90944
H         35.08704       40.81038       79.86296
H         34.92028       42.20066       78.73716
H         37.18460       41.83668       77.82166
H         37.38155       40.34761       78.80302
N         36.28842       40.21955       75.83544
C         36.69438       40.53364       74.47179
C         35.68390       39.96415       73.49085
O         35.14388       40.71876       72.69352
C         38.15284       40.06855       74.21478
C         39.07876       40.78964       75.22204
C         40.54739       40.67316       74.97433
O         41.19658       41.69536       74.84602
O         41.19898       39.49920       74.97383
H         36.90248       39.62718       76.41225
H         36.70545       41.64015       74.34386
H         38.43260       40.36551       73.18099
H         38.26087       38.96486       74.30669
H         38.89556       40.42948       76.24948
H         38.83602       41.87414       75.20119
N         35.30943       38.65849       73.55301
C         34.25196       38.11369       72.72877
H         33.30967       38.67900       72.90312
H         34.52869       38.17229       71.65665
H         34.06876       37.05179       73.00113
H         35.74563       38.04300       74.24701
Ca        43.41770       39.88217       74.98463
O         43.15539       36.96107       76.95643
H         43.75402       36.50053       77.59695
H         42.50789       36.26595       76.67884
O         42.58023       39.94192       77.86398
H         41.98359       40.25938       78.58689
H         43.49521       40.11026       78.20250

Ca 1.0



