%chk=holoCaM.loop4.water3.frame46.chk
%nprocshared=20
%mem=10GB
%nosave
#b3lyp/svp scf=(tight,noincore,xqc) Test 
#IOP(5/87=12) Density=Current Pop=(MK,readradii) iop(6/33=2) iop(6/42=6)

holoCaM.loop4.water3.frame46 

   -3  1 
C        110.10028       63.77731       12.97412
C        110.48696       64.93733       13.85023
O        109.84706       65.97637       13.80953
H        109.21748       64.01721       12.34620
H        110.95062       63.48657       12.32337
H        109.83923       62.90885       13.62057
N        111.52186       64.79000       14.71436
C        111.87812       65.75370       15.75030
C        112.40685       67.08770       15.21718
O        113.35881       67.06737       14.44751
C        112.98369       65.12781       16.62980
C        113.20781       65.88271       17.89848
O        112.43838       66.76602       18.23466
O        114.22243       65.53320       18.70980
H        112.02165       63.88614       14.69321
H        110.97742       65.90888       16.38422
H        113.92915       65.08106       16.04637
H        112.71430       64.09293       16.92634
N        111.90324       68.28559       15.66112
C        112.48728       69.58976       15.31131
C        112.97435       70.40116       16.54234
O        113.60025       71.42718       16.33622
C        111.48555       70.38991       14.41059
C        112.15109       71.62659       13.75140
C        110.20807       70.79493       15.17315
C        111.33426       72.20465       12.59157
H        111.08917       68.26156       16.28998
H        113.39221       69.40966       14.69194
H        111.20211       69.69977       13.58430
H        113.12900       71.32246       13.32046
H        112.32931       72.42666       14.50029
H        109.47651       71.29850       14.51126
H        109.69616       69.90552       15.57114
H        110.44858       71.47905       16.01523
H        110.34468       72.57748       12.92082
H        111.88549       73.05732       12.14213
H        111.19087       71.43074       11.80695
N        112.69661       70.03160       17.83506
C        113.02013       70.85945       19.01844
C        113.75120       70.12406       20.16026
O        114.07961       70.77681       21.14391
C        111.71123       71.47242       19.57140
C        110.71311       70.43579       20.03097
O        111.02650       69.12528       19.95253
O        109.62022       70.78575       20.44113
H        112.14229       69.18822       17.96955
H        113.67105       71.70771       18.71412
H        111.24432       72.07936       18.76476
H        111.94342       72.15786       20.41655
N        114.03987       68.79552       20.11882
C        114.77817       68.07387       21.15111
C        114.10974       67.87241       22.51356
O        114.78081       67.29581       23.35853
H        113.81147       68.27796       19.26991
H        115.74807       68.59388       21.30733
H        115.00904       67.05709       20.76845
N        112.85048       68.29811       22.84202
C        112.32780       68.16424       24.21423
C        112.12642       66.72130       24.70491
O        111.96718       66.54266       25.90480
C        111.03159       68.98309       24.42658
C        109.84752       68.54247       23.61149
O        109.93737       67.63543       22.80560
O        108.66646       69.16610       23.77387
H        112.29306       68.79913       22.13848
H        113.09081       68.62429       24.88147
H        111.23112       70.04882       24.18799
H        110.74538       68.91978       25.49902
N        112.08949       65.65799       23.85446
C        111.95918       64.26606       24.27581
C        110.67314       63.59705       23.80643
O        110.58521       62.38386       23.92957
H        112.16858       65.83803       22.85296
H        112.01183       64.15369       25.38097
H        112.82597       63.71437       23.85162
N        109.61090       64.31469       23.33411
C        108.32873       63.72903       22.94089
C        107.88539       64.23260       21.58085
O        107.90432       65.43430       21.35439
C        107.21598       64.14483       23.91504
C        107.41781       63.62526       25.33975
C        106.21123       63.96440       26.17860
N        105.84487       65.25233       26.38051
O        105.54756       63.06364       26.66999
H        109.68095       65.33591       23.31824
H        108.36496       62.61618       22.94608
H        106.25904       63.71548       23.53598
H        107.12343       65.25266       23.92273
H        108.32901       64.07176       25.79067
H        107.54215       62.51948       25.30936
H        106.38849       66.02819       25.97590
H        105.00882       65.47631       26.93980
N        107.34200       63.37418       20.67396
C        106.74736       63.82347       19.41731
C        105.57524       64.77609       19.67372
O        104.70470       64.45673       20.47168
C        106.31818       62.60675       18.53897
C        105.10481       61.83501       19.09175
C        106.03646       63.04758       17.09477
H        107.32384       62.36891       20.90319
H        107.53824       64.35078       18.84514
H        107.18251       61.90812       18.49044
H        104.89712       60.94915       18.45534
H        105.29022       61.48240       20.12645
H        104.18999       62.46491       19.08389
H        105.79894       62.16889       16.45913
H        105.18365       63.74938       17.05164
H        106.93251       63.54522       16.66579
N        105.46916       65.94124       18.97565
C        104.32113       66.84300       19.06118
C        103.33555       66.51758       17.94688
O        103.62351       65.65892       17.12722
C        104.84451       68.29396       18.93425
C        103.83490       69.38428       19.17999
N        103.23851       69.51165       20.38679
O        103.58037       70.18517       18.29341
H        106.18224       66.13972       18.26670
H        103.80854       66.70173       20.03717
H        105.29083       68.42127       17.92306
H        105.64164       68.43983       19.67534
H        103.46324       68.86377       21.15523
H        102.56417       70.27222       20.55787
N        102.12840       67.14189       17.86796
C        101.19851       66.91799       16.76441
C        101.74136       67.48183       15.45620
O        101.59590       66.81936       14.43873
C         99.76344       67.36244       17.12343
C         99.60004       68.78385       17.60357
C         99.72224       69.87521       16.73106
C         99.28679       69.01888       18.95528
C         99.53700       71.17929       17.20602
C         99.11071       70.31875       19.42809
C         99.23219       71.40372       18.55760
O         99.04821       72.65265       19.02986
H        101.85733       67.78447       18.62427
H        101.08057       65.81859       16.61750
H         99.44881       66.68418       17.94837
H         99.06778       67.16506       16.27879
H         99.94361       69.71920       15.68374
H         99.18262       68.19389       19.64983
H         99.62569       72.01406       16.52288
H         98.87441       70.47968       20.47261
H         99.11268       73.43291       18.46179
N        102.42707       68.66442       15.40359
C        103.05022       69.15457       14.16934
C        104.24687       68.30120       13.73140
O        104.75199       68.53493       12.64213
C        103.53585       70.61383       14.30641
C        102.39745       71.59458       14.61551
C        102.89925       73.00982       14.61715
O        103.38104       73.49270       13.60412
O        102.80751       73.75880       15.73209
H        102.50764       69.22187       16.26330
H        102.28116       69.13065       13.36447
H        103.99020       70.91688       13.33602
H        104.31761       70.68321       15.09554
H        101.96424       71.36320       15.60860
H        101.59901       71.50440       13.84760
N        104.75303       67.30414       14.51439
C        105.86831       66.44147       14.13145
C        105.39311       65.01714       13.86513
O        106.20620       64.20903       13.43716
C        106.89565       66.37751       15.27789
C        107.47400       67.73456       15.70246
C        108.34411       67.60639       16.92948
O        108.59610       66.40431       17.48164
O        108.80909       68.60590       17.45084
H        104.32764       67.13140       15.42709
H        106.34742       66.81486       13.20010
H        107.72410       65.69048       15.01209
H        106.36922       65.93397       16.14196
H        106.64299       68.42502       15.95170
H        108.06436       68.17200       14.86928
N        104.11000       64.62530       14.11617
C        103.61647       63.28327       13.90319
H        102.75261       63.32252       13.20721
H        104.38773       62.60947       13.47861
H        103.27415       62.86624       14.87409
H        103.43284       65.28795       14.50157
Ca       109.80409       67.24079       20.07943
O        111.96027       65.08187       20.59550
H        112.55526       64.35187       20.89953
H        112.51279       65.90076       20.66753
O        110.16545       64.17409       18.61176
H        109.71348       63.89129       17.77839
H        111.03236       63.69840       18.59364
O        107.65207       68.60579       21.01853
H        107.01524       68.98505       21.67176
H        107.66899       69.25630       20.27223

Ca 1.0



