%chk=holoCaM-CaMKII.loop4.water1.frame386.chk
%nprocshared=20
%mem=10GB
%nosave
#b3lyp/svp scf=(tight,noincore,xqc) Test 
#IOP(5/87=12) Density=Current Pop=(MK,readradii) iop(6/33=2) iop(6/42=6)

holoCaM-CaMKII.loop4.water1.frame386 

   -3  1 
C         70.25400       73.86682       79.56462
C         71.34432       74.47803       80.38763
O         72.41158       74.76106       79.86156
H         69.36883       74.53857       79.57858
H         70.58290       73.73267       78.51290
H         69.97133       72.88190       79.98977
N         71.12423       74.74244       81.70237
C         72.10224       75.42071       82.53609
C         73.35643       74.56384       82.72809
O         73.26105       73.47746       83.28276
C         71.47086       75.75838       83.89287
C         72.34892       76.65372       84.69395
O         72.04443       76.89527       85.83970
O         73.46931       77.17636       84.16088
H         70.19968       74.50802       82.09868
H         72.35214       76.38114       82.03055
H         71.28420       74.81442       84.45208
H         70.49924       76.28257       83.75931
N         74.56091       74.98781       82.24849
C         75.76584       74.15642       82.23772
C         76.43682       74.04827       83.61300
O         76.79435       72.94686       84.00441
C         76.72935       74.60514       81.07485
C         77.39199       73.38783       80.38248
C         77.80557       75.62329       81.50660
C         78.03120       73.75097       79.03598
H         74.56914       75.87321       81.72711
H         75.41617       73.14446       81.93515
H         76.08120       75.05263       80.28764
H         76.60699       72.63841       80.13993
H         78.13390       72.90897       81.05621
H         78.52760       75.15407       82.20736
H         78.36752       76.01444       80.63607
H         77.37596       76.49048       82.01304
H         77.26665       74.19840       78.36184
H         78.87143       74.46265       79.14949
H         78.42287       72.83360       78.55070
N         76.63453       75.15595       84.39619
C         77.34800       75.15286       85.68047
C         76.41617       75.33955       86.88423
O         76.91051       75.32970       88.00339
C         78.49899       76.19557       85.65459
C         78.00654       77.59168       85.39739
O         77.10582       78.14789       86.22542
O         78.33475       78.17669       84.37789
H         76.25093       76.05153       84.06961
H         77.82615       74.16267       85.84415
H         79.21088       75.91200       84.84795
H         79.05511       76.17968       86.61653
N         75.06052       75.41093       86.74720
C         74.13642       75.34554       87.87197
C         74.10988       76.55777       88.78215
O         74.33416       76.39169       89.97287
H         74.64632       75.37632       85.80659
H         74.36343       74.43031       88.46343
H         73.10695       75.21960       87.47839
N         73.75584       77.79010       88.31049
C         73.52755       78.95501       89.16956
C         72.10104       79.51890       89.05316
O         71.78708       80.43187       89.80345
C         74.58751       80.04566       88.89559
C         74.56676       80.65380       87.51681
O         75.46858       81.60155       87.20131
O         73.74758       80.31251       86.68285
H         73.62071       77.89689       87.30188
H         73.65249       78.65725       90.23343
H         75.59221       79.60254       89.06325
H         74.45016       80.86956       89.62872
N         71.18971       79.04082       88.15180
C         69.81813       79.51537       88.03161
C         69.50866       80.16797       86.69253
O         68.36029       80.54878       86.50971
H         71.45279       78.28635       87.52331
H         69.57757       80.25652       88.82216
H         69.14080       78.64451       88.17042
N         70.45770       80.38360       85.73100
C         70.19105       81.16534       84.51923
C         70.95455       80.63395       83.31120
O         71.79080       79.75548       83.47825
C         70.44564       82.66243       84.82131
C         71.86160       82.98651       85.34448
C         72.91191       82.89552       84.27623
N         72.88011       83.74699       83.22786
O         73.81092       82.07307       84.36571
H         71.42809       80.11003       85.92563
H         69.11567       81.05837       84.25363
H         69.73972       82.94298       85.63299
H         70.19586       83.29378       83.94236
H         72.10550       82.32392       86.20060
H         71.87971       84.02708       85.73225
H         72.14762       84.46753       83.15340
H         73.60082       83.70124       82.50059
N         70.65297       81.06567       82.04315
C         71.26945       80.49039       80.84565
C         71.83638       81.58779       79.93263
O         71.07279       82.29148       79.28687
C         70.24381       79.57110       80.11066
C         70.85948       78.86848       78.89019
C         69.69736       78.48590       81.06020
H         69.89755       81.75701       81.91856
H         72.09846       79.82737       81.14573
H         69.38800       80.19024       79.76361
H         71.67971       78.19346       79.20617
H         70.09295       78.24875       78.37703
H         71.24455       79.60295       78.15597
H         69.17349       78.93748       81.92745
H         68.96640       77.83645       80.53304
H         70.52313       77.84756       81.43983
N         73.18646       81.77469       79.83841
C         73.86837       82.70166       78.93055
C         73.78375       82.21602       77.49187
O         73.18994       81.18384       77.23769
C         75.37003       82.78605       79.31944
C         75.55931       83.43323       80.66368
N         76.09573       82.74567       81.69686
O         75.23090       84.60058       80.81738
H         73.77911       81.22879       80.46198
H         73.41974       83.71614       79.00844
H         75.95162       83.39666       78.59940
H         75.80311       81.76134       79.30860
H         76.37600       81.76163       81.58393
H         76.22114       83.19752       82.61508
N         74.39023       82.91756       76.49213
C         74.43683       82.47540       75.10064
C         75.22473       81.17811       74.97242
O         74.71085       80.22370       74.40673
C         75.07647       83.58216       74.23145
C         74.99686       83.30305       72.74801
C         73.74623       83.14868       72.12329
C         76.16346       83.23050       71.96797
C         73.66371       82.92573       70.74699
C         76.07781       83.01213       70.58824
C         74.82586       82.86090       69.97351
O         74.72631       82.66022       68.64394
H         74.84428       83.81142       76.73293
H         73.39454       82.32400       74.74649
H         76.13082       83.74113       74.54977
H         74.52877       84.53274       74.40981
H         72.83092       83.20980       72.69741
H         77.13853       83.35347       72.42261
H         72.69301       82.81228       70.28067
H         76.98383       82.96709       69.99717
H         75.50342       82.62401       68.06849
N         76.47732       81.07568       75.50745
C         77.30338       79.86793       75.44833
C         76.55062       78.65174       75.95919
O         76.54408       77.62848       75.28883
C         78.64013       80.07129       76.21776
C         78.49153       80.26870       77.74060
C         79.80651       80.58003       78.39233
O         79.96495       81.73609       79.06537
O         80.72937       79.78310       78.33565
H         76.85218       81.89926       76.00147
H         77.58062       79.67991       74.38643
H         79.14890       80.96065       75.78529
H         79.29615       79.18899       76.04364
H         78.09727       79.34349       78.20860
H         77.79391       81.10551       77.94835
N         75.85889       78.71603       77.12896
C         75.11422       77.59893       77.69593
C         74.04039       77.13950       76.71829
O         74.02306       75.96838       76.36619
C         74.52753       77.98750       79.08007
C         75.64784       78.35043       80.08344
C         75.16060       78.60038       81.48681
O         75.65544       77.90059       82.51201
O         74.36302       79.47797       81.73046
H         75.84805       79.61773       77.62497
H         75.80888       76.74659       77.87409
H         73.96293       77.11521       79.47559
H         73.83816       78.85168       78.97582
H         76.18094       79.26244       79.75336
H         76.37960       77.52116       80.10814
N         73.15577       78.02904       76.19025
C         72.15583       77.69577       75.19566
H         71.15076       77.97471       75.57442
H         72.35663       78.27611       74.26860
H         72.15517       76.61689       74.93714
H         73.21721       79.00864       76.47399
Ca        75.08826       78.25257       85.27496
O         76.94672       80.82479       84.14566
H         77.06632       80.26202       83.33994
H         77.66081       81.50711       84.07667

Ca 1.0



