%chk=holoCaM.loop2.water2.frame67.chk
%nprocshared=20
%mem=10GB
%nosave
#b3lyp/svp scf=(tight,noincore,xqc) Test 
#IOP(5/87=12) Density=Current Pop=(MK,readradii) iop(6/33=2) iop(6/42=6)

holoCaM.loop2.water2.frame67 

   -2  1 
C         93.55306       36.31765       14.29607
C         93.58166       37.80302       14.07435
O         92.57770       38.38155       13.68528
H         92.55807       35.89168       14.05101
H         94.32666       35.82544       13.67024
H         93.77364       36.10595       15.36551
N         94.72167       38.48928       14.34567
C         94.83695       39.94106       14.27857
C         94.68117       40.46782       12.85283
O         95.38924       40.00122       11.97128
C         96.21534       40.35666       14.84008
C         96.32645       41.82348       15.12625
O         97.48650       42.32142       15.59129
O         95.36253       42.55906       15.00479
H         95.53218       37.94513       14.68301
H         94.06001       40.37235       14.94775
H         97.01421       40.04470       14.13285
H         96.39038       39.84704       15.81132
N         93.80886       41.48259       12.57340
C         93.62932       42.06649       11.24281
C         94.04159       43.54367       11.16931
O         93.94559       44.11000       10.08894
C         92.15406       41.92530       10.84465
H         93.25220       41.87062       13.34617
H         94.24407       41.52089       10.49481
H         91.97930       42.32284        9.82192
H         91.85247       40.85656       10.85976
H         91.50662       42.48505       11.55515
N         94.47712       44.24125       12.26135
C         94.71987       45.68898       12.25719
C         95.86411       46.14058       13.18185
O         96.08704       47.34043       13.26934
C         93.40263       46.41877       12.59869
C         92.82833       46.05970       13.93373
O         93.44507       45.18424       14.74198
O         91.74725       46.51884       14.26550
H         94.46716       43.76035       13.16091
H         94.99196       46.02289       11.23188
H         92.64666       46.14302       11.83056
H         93.54780       47.51882       12.55417
N         96.65545       45.26268       13.86737
C         97.79753       45.66469       14.68370
C         97.48802       46.40086       15.98397
O         98.44353       46.77329       16.65042
H         96.52190       44.25631       13.73134
H         98.46646       46.29760       14.06087
H         98.37133       44.75570       14.96282
N         96.22196       46.67009       16.41804
C         95.94702       47.48503       17.61013
C         96.20419       46.78365       18.96156
O         95.92087       47.39285       19.98409
C         94.51981       48.08563       17.52451
C         93.39215       47.10493       17.65672
N         92.11140       47.52487       17.54793
O         93.62514       45.93063       17.86854
H         95.43087       46.38221       15.82818
H         96.60311       48.38239       17.56541
H         94.42121       48.60086       16.54344
H         94.39498       48.84874       18.32237
H         91.89611       48.51495       17.36113
H         91.33280       46.85834       17.64594
N         96.76844       45.54178       19.05953
C         97.08561       44.88524       20.32725
C         95.90623       44.26192       21.06782
O         96.14918       43.65732       22.10271
H         97.09079       45.06964       18.20783
H         97.63093       45.59490       20.98904
H         97.77887       44.04379       20.11170
N         94.62105       44.35159       20.62051
C         93.46558       43.76189       21.29930
C         92.61640       42.91489       20.35716
O         92.39739       43.30422       19.21933
C         92.56191       44.87412       21.87848
C         93.25674       45.62632       23.01295
O         92.18748       45.79256       20.88233
H         94.43857       44.89898       19.77906
H         93.77770       43.12753       22.15982
H         91.65292       44.40945       22.33200
H         91.44779       45.38042       20.36507
H         93.53018       44.92097       23.82784
H         94.17378       46.13429       22.64935
H         92.56581       46.38835       23.43129
N         91.98687       41.80190       20.83129
C         90.96359       41.06545       20.08543
C         89.71721       41.93014       19.95101
O         89.27815       42.50428       20.93957
C         90.60714       39.72809       20.80894
C         91.85307       38.80401       20.82607
C         89.42213       39.01634       20.11291
C         91.66718       37.53741       21.66162
H         92.18684       41.51002       21.80065
H         91.34748       40.78568       19.07823
H         90.30210       39.95989       21.85411
H         92.71639       39.34500       21.26497
H         92.12418       38.52184       19.78443
H         88.51264       39.64629       20.14929
H         89.66291       38.79101       19.05141
H         89.14160       38.07771       20.62678
H         91.42964       37.80850       22.71207
H         90.86759       36.88626       21.25769
H         92.61003       36.95202       21.64951
N         89.03671       41.97092       18.77095
C         87.78711       42.70279       18.57033
C         86.66316       41.71058       18.37936
O         86.92508       40.51205       18.38804
C         87.87178       43.58641       17.30868
C         89.14234       44.35753       17.22906
O         90.28741       43.65865       17.20662
O         89.14563       45.56857       17.07977
H         89.39317       41.40882       17.98396
H         87.56575       43.34050       19.45416
H         86.99030       44.26053       17.23810
H         87.87821       42.92943       16.41058
N         85.37726       42.11351       18.19637
C         84.32009       41.14637       17.95854
C         84.53621       40.41655       16.62619
O         84.54103       39.19897       16.66578
C         82.91094       41.75070       18.11537
C         81.86296       40.67482       17.94747
C         81.82370       39.56886       18.82010
C         80.93009       40.75413       16.90175
C         80.87745       38.55882       18.63797
C         79.98255       39.74165       16.72577
C         79.95824       38.64390       17.59063
H         85.14759       43.11981       18.24431
H         84.38628       40.39256       18.77486
H         82.73800       42.57248       17.40275
H         82.81279       42.19105       19.13179
H         82.52715       39.47947       19.63821
H         80.94286       41.59284       16.21701
H         80.86071       37.70852       19.30785
H         79.27028       39.80588       15.91442
H         79.22795       37.85849       17.44942
N         84.75005       41.04341       15.41869
C         85.01031       40.32134       14.17045
C         86.23510       39.40645       14.15340
O         86.43594       38.75792       13.13365
C         85.23854       41.43916       13.14380
C         84.36399       42.54146       13.68073
C         84.66631       42.46782       15.17517
H         84.09396       39.73440       13.93796
H         86.28673       41.81289       13.22844
H         85.05470       41.14311       12.08837
H         84.52437       43.54045       13.22339
H         83.30403       42.23645       13.51508
H         85.63926       42.93803       15.42766
H         83.83740       42.97870       15.68648
N         87.10511       39.30731       15.20357
C         88.29341       38.45614       15.19513
C         88.18601       37.31608       16.20228
O         89.03918       36.44135       16.17282
C         89.54197       39.29602       15.53048
C         89.71633       40.50812       14.60357
C         90.86564       41.38480       15.01534
O         91.63788       41.07776       16.07636
O         91.08350       42.41120       14.39401
H         86.94589       39.87516       16.04159
H         88.41869       37.99172       14.19227
H         90.45238       38.65826       15.48533
H         89.43060       39.66158       16.57222
H         88.80189       41.13712       14.64093
H         89.87383       40.16139       13.56002
N         87.18444       37.26081       17.12895
C         87.02460       36.18836       18.08685
H         86.01359       35.74499       17.96366
H         87.77910       35.38632       17.95771
H         87.10893       36.60024       19.11458
H         86.49819       38.01453       17.19135
Ca        92.13208       44.43726       16.33575
O         94.01947       40.40969       17.73844
H         94.90008       39.99509       17.91814
H         93.39173       39.64684       17.68052
O         95.01108       43.21202       17.77961
H         95.50268       42.63149       18.41249
H         95.71882       43.64195       17.24060

Ca 1.0



