%chk=holoCaM.loop4.water3.frame283.chk
%nprocshared=20
%mem=10GB
%nosave
#b3lyp/svp scf=(tight,noincore,xqc) Test 
#IOP(5/87=12) Density=Current Pop=(MK,readradii) iop(6/33=2) iop(6/42=6)

holoCaM.loop4.water3.frame283 

   -3  1 
C         41.36193       72.77277       81.93182
C         42.80475       72.61604       82.30104
O         43.42251       73.60138       82.67804
H         41.03787       73.82842       82.06605
H         41.21052       72.48401       80.87226
H         40.74022       72.12761       82.58679
N         43.41610       71.39828       82.21061
C         44.80912       71.18944       82.59137
C         45.28236       69.78043       82.26062
O         44.70622       68.82396       82.76314
C         45.00360       71.43684       84.10457
C         46.44064       71.25966       84.48859
O         46.78875       70.33531       85.40396
O         47.29934       71.94013       83.95210
H         42.86845       70.60188       81.84885
H         45.43366       71.91421       82.03072
H         44.37001       70.73398       84.68862
H         44.71091       72.46781       84.38256
N         46.38146       69.59377       81.46973
C         46.97887       68.28766       81.20074
C         48.42267       68.18289       81.71397
O         48.98548       67.10614       81.58668
C         46.96366       67.97112       79.66911
C         47.87308       68.94174       78.86107
C         45.52312       67.96776       79.13001
C         48.10274       68.51196       77.41335
H         46.83103       70.42345       81.06156
H         46.39771       67.49464       81.72162
H         47.37226       66.94299       79.54674
H         48.88178       68.98093       79.32194
H         47.45100       69.96401       78.87048
H         44.90088       67.25350       79.70870
H         45.07097       68.97971       79.20531
H         45.49375       67.64671       78.06935
H         48.56319       67.50121       77.38451
H         47.16179       68.51010       76.82954
H         48.80425       69.22645       76.93286
N         49.11146       69.26088       82.21116
C         50.55839       69.22648       82.46766
C         50.99402       69.63722       83.86596
O         52.15748       69.42562       84.18731
C         51.27971       70.12796       81.44582
C         50.89961       71.59886       81.48238
O         49.93785       72.08817       82.30594
O         51.47764       72.35622       80.72559
H         48.62264       70.15441       82.30083
H         50.93467       68.19054       82.32328
H         51.07006       69.74365       80.42397
H         52.37635       70.04428       81.61290
N         50.16710       70.27457       84.72930
C         50.57170       70.70567       86.05316
C         51.74701       71.66590       86.05608
O         52.70318       71.39240       86.76753
H         49.20361       70.47529       84.44609
H         50.81863       69.81453       86.67148
H         49.71296       71.21850       86.53463
N         51.72919       72.83113       85.33948
C         52.75180       73.87279       85.50394
C         52.15284       75.15834       86.08120
O         52.91362       76.05883       86.40821
C         53.57174       74.10319       84.21047
C         52.83503       74.67976       83.03629
O         51.54124       75.00669       83.12209
O         53.42996       74.87695       81.98923
H         50.93570       73.00260       84.70483
H         53.49462       73.53782       86.25911
H         54.01164       73.13123       83.90091
H         54.40707       74.79957       84.44285
N         50.80670       75.30099       86.26839
C         50.17480       76.42734       86.93011
C         49.27170       77.21895       86.01142
O         48.53622       78.05202       86.52208
H         50.16703       74.56394       85.96204
H         50.91443       77.12942       87.37088
H         49.56680       76.01558       87.76505
N         49.33632       77.09782       84.65069
C         48.59596       77.96302       83.74296
C         47.87337       77.14903       82.63521
O         48.81539       76.49769       81.81866
C         49.55766       79.01008       83.13044
C         50.17798       79.91427       84.21138
C         51.06926       80.99373       83.64880
N         51.66673       81.87077       84.48758
O         51.25559       81.08862       82.44399
H         50.02076       76.45781       84.23743
H         47.81459       78.52391       84.30290
H         48.99079       79.66192       82.43083
H         50.36519       78.49839       82.56221
H         50.78247       79.30023       84.91202
H         49.35992       80.40662       84.78137
H         51.51894       81.80704       85.50577
H         52.27598       82.61635       84.12003
N         47.08549       78.08219       81.80973
C         46.20477       77.45781       80.80672
C         46.84106       77.69062       79.44684
O         47.12041       78.83037       79.10101
C         44.75689       78.05092       80.85143
C         43.85937       77.40822       79.77804
C         44.07965       77.83501       82.22049
H         46.60465       78.81030       82.38280
H         46.10810       76.36620       80.99366
H         44.80706       79.14509       80.65521
H         42.84080       77.85043       79.80981
H         44.26204       77.58527       78.76254
H         43.77180       76.31340       79.94655
H         44.62687       78.32270       83.05004
H         43.06028       78.27712       82.21155
H         43.98919       76.75294       82.44889
N         47.06362       76.64297       78.60976
C         47.66244       76.75648       77.28196
C         46.54113       76.77908       76.24453
O         45.38405       76.70853       76.63268
C         48.61850       75.54351       77.13768
C         49.65463       75.51382       76.04079
N         50.44981       74.42391       75.92008
O         49.82311       76.46245       75.29390
H         46.74479       75.71263       78.90836
H         48.23931       77.70387       77.20849
H         48.00234       74.61929       77.08361
H         49.21073       75.50252       78.06491
H         50.33907       73.61911       76.55571
H         51.17875       74.38029       75.19286
N         46.78566       76.91379       74.91167
C         45.72908       76.87763       73.90631
C         45.06553       75.51136       73.90122
O         43.84691       75.43809       73.93450
C         46.30184       77.19893       72.50981
C         45.20698       77.32419       71.47432
C         44.21641       78.31508       71.60750
C         45.16588       76.46190       70.36691
C         43.20134       78.43515       70.65625
C         44.14914       76.58599       69.41374
C         43.16264       77.57338       69.55696
O         42.17680       77.70488       68.64686
H         47.74606       77.05440       74.58894
H         44.98249       77.66383       74.15186
H         47.03757       76.41514       72.22317
H         46.84198       78.16988       72.54860
H         44.22713       78.99858       72.44691
H         45.91792       75.69330       70.24067
H         42.44491       79.20115       70.77451
H         44.12894       75.91462       68.56492
H         42.11371       77.13198       67.86966
N         45.82586       74.37926       73.88584
C         45.26922       73.02577       73.92834
C         44.48012       72.70916       75.20902
O         43.89958       71.63413       75.26636
C         46.39511       71.98367       73.70798
C         47.43684       71.93469       74.84279
C         48.56000       71.00205       74.49129
O         49.70546       71.41964       74.42459
O         48.31167       69.70131       74.24716
H         46.84755       74.49770       73.82187
H         44.56944       72.93316       73.06814
H         46.90750       72.23601       72.75289
H         45.94688       70.97199       73.59160
H         46.95860       71.58082       75.77881
H         47.86211       72.94280       75.02809
N         44.40564       73.57871       76.26291
C         43.65597       73.32400       77.49406
C         42.51419       74.32280       77.69312
O         41.75262       74.14142       78.63313
C         44.59563       73.45965       78.70938
C         45.86250       72.59655       78.62346
C         46.83583       72.88903       79.73838
O         48.03073       72.27107       79.75468
O         46.57617       73.70300       80.61054
H         44.92199       74.45682       76.21220
H         43.21494       72.30402       77.46649
H         44.04665       73.22149       79.64709
H         44.90738       74.52169       78.75505
H         46.39233       72.82349       77.67827
H         45.58334       71.52193       78.63346
N         42.35179       75.41606       76.89132
C         41.31454       76.41021       77.07566
H         40.64290       76.17428       77.92612
H         41.78738       77.39785       77.26498
H         40.70656       76.48176       76.14965
H         43.00174       75.59303       76.12341
Ca        49.12808       74.24513       82.29095
O         46.17128       74.71119       83.58839
H         45.67457       74.97703       84.40200
H         45.61674       75.04532       82.84270
O         47.79023       73.94953       85.79066
H         48.31156       73.13626       86.00644
H         47.43497       74.25548       86.66070
O         50.62192       74.79041       79.88828
H         51.57543       74.98122       79.70958
H         50.40011       74.03957       79.28030

Ca 1.0



