%chk=holoCaM-CaMKII.loop1.water2.frame387.chk
%nprocshared=20
%mem=10GB
%nosave
#b3lyp/svp scf=(tight,noincore,xqc) Test 
#IOP(5/87=12) Density=Current Pop=(MK,readradii) iop(6/33=2) iop(6/42=6)

holoCaM-CaMKII.loop1.water2.frame387 

   0  1 
C         49.45542       85.31017       67.76060
C         48.00409       85.27938       68.12675
O         47.53673       86.22148       68.75151
H         50.07416       85.35515       68.67929
H         49.74248       84.41493       67.17052
H         49.64959       86.21294       67.14205
N         47.21084       84.24286       67.73526
C         45.77531       84.25407       67.95695
C         45.44603       84.19978       69.44950
O         45.80623       83.23375       70.10831
C         45.09795       83.08576       67.21230
C         43.61921       83.29974       67.12147
O         43.08862       84.47441       67.50406
O         42.90401       82.43091       66.65912
H         47.62937       83.47065       67.19375
H         45.40733       85.19910       67.49978
H         45.32314       82.13092       67.73713
H         45.47369       83.00977       66.16968
N         44.79086       85.23291       70.04837
C         44.57938       85.32971       71.48921
C         43.35694       84.55728       71.96751
O         43.47605       83.86458       72.96924
C         44.53847       86.81614       71.90572
C         44.51419       86.99680       73.43520
C         44.77452       88.45680       73.83008
C         44.76199       88.62605       75.35657
N         45.11367       89.99415       75.73694
H         44.55548       86.05063       69.46914
H         45.48322       84.93516       72.00928
H         43.67790       87.34490       71.44098
H         45.47779       87.27640       71.52349
H         45.32120       86.37998       73.88967
H         43.53589       86.65373       73.83647
H         44.00736       89.12038       73.37577
H         45.77600       88.75326       73.44564
H         45.49498       87.92712       75.81840
H         43.74944       88.37944       75.74635
H         46.08662       90.21317       75.42024
H         44.44273       90.67426       75.31216
H         45.07399       90.08108       76.77832
N         42.15341       84.62324       71.31953
C         40.94914       83.95225       71.81956
C         40.71762       82.58151       71.18600
O         39.77289       81.91312       71.58442
C         39.71738       84.88865       71.73588
C         39.29553       85.26621       70.34118
O         39.33920       84.37528       69.33862
O         38.82904       86.37282       70.12866
H         42.09817       85.14027       70.42984
H         41.08034       83.73596       72.90376
H         39.94865       85.82200       72.29676
H         38.84680       84.41863       72.23837
N         41.57368       82.06058       70.25945
C         41.48362       80.69441       69.76903
C         40.24026       80.41754       68.96068
O         39.48972       79.52552       69.33175
H         42.37993       82.61468       69.93987
H         41.54016       79.99574       70.63459
H         42.35829       80.48638       69.11657
N         39.98344       81.11297       67.81502
C         38.84808       80.82011       66.93854
C         39.26895       80.41601       65.52043
O         38.39557       80.02268       64.76028
C         37.85529       82.00453       66.93260
C         38.38094       83.29817       66.36890
O         37.58775       84.38516       66.35844
O         39.50874       83.38245       65.91972
H         40.62529       81.87580       67.56408
H         38.28827       79.94860       67.34279
H         37.53735       82.19164       67.98089
H         36.95570       81.72113       66.34599
N         40.56492       80.47947       65.08788
C         41.00721       80.03629       63.77089
C         41.51608       81.16457       62.89033
O         42.05787       80.86166       61.83602
H         41.29547       80.83877       65.71106
H         40.19929       79.51835       63.21128
H         41.82475       79.29951       63.92717
N         41.32311       82.47843       63.20667
C         41.74228       83.59501       62.35836
C         42.57672       84.59601       63.14131
O         42.70027       84.46582       64.35236
C         40.50353       84.29254       61.73932
C         39.80003       83.40636       60.70268
O         39.60093       84.71022       62.73404
H         40.81169       82.70538       64.06484
H         42.38517       83.22790       61.52802
H         40.83374       85.19607       61.18376
H         39.09591       83.91642       63.05352
H         38.93664       83.95485       60.26943
H         40.50464       83.15744       59.88069
H         39.43278       82.46436       61.16077
N         43.22577       85.60562       62.48559
C         44.09164       86.57397       63.15186
C         43.66134       87.98849       62.77363
O         43.80832       88.36214       61.61702
C         45.57835       86.30787       62.75332
C         45.98609       84.85492       63.12220
C         46.52409       87.32427       63.42396
C         47.37444       84.45599       62.61778
H         43.15347       85.65323       61.45703
H         44.01650       86.45384       64.25128
H         45.66458       86.42330       61.64940
H         45.27722       84.14186       62.65186
H         45.93750       84.71435       64.22442
H         46.25520       88.35734       63.13791
H         46.47995       87.23029       64.52922
H         47.57128       87.18480       63.09175
H         48.17472       85.05978       63.08860
H         47.56500       83.39219       62.87270
H         47.42534       84.56797       61.51350
N         43.12268       88.83432       63.70007
C         42.78427       90.23088       63.40241
C         44.05215       91.07488       63.28852
O         45.13534       90.55738       63.50024
C         41.85495       90.83319       64.49275
C         40.48927       90.13371       64.54932
O         42.48422       90.83741       65.74991
H         42.94078       88.46406       64.64247
H         42.22712       90.27313       62.43991
H         41.62554       91.88817       64.23428
H         42.29201       89.98006       66.20780
H         39.98446       90.18993       63.56165
H         40.61015       89.07296       64.83319
H         39.84445       90.62892       65.30608
N         43.98880       92.40089       62.97492
C         45.16837       93.26868       62.93389
C         45.82665       93.34968       64.30704
O         47.01629       93.08741       64.41191
C         44.81303       94.69351       62.43167
C         44.33266       94.68823       60.97807
O         43.82188       95.28141       63.23835
H         43.06556       92.80863       62.76855
H         45.90788       92.85371       62.21127
H         45.75099       95.30211       62.44917
H         44.21209       96.09560       63.65119
H         44.13528       95.73013       60.64748
H         45.11329       94.25417       60.31758
H         43.39769       94.10220       60.86310
N         45.09624       93.69474       65.40530
C         45.64006       93.81911       66.75947
C         46.38684       92.56991       67.19627
O         47.51024       92.69147       67.66486
C         44.52764       94.22140       67.76280
C         43.37687       93.20766       67.90916
C         42.23399       93.78323       68.75262
C         41.05684       92.79988       68.83174
N         39.93138       93.39130       69.55490
H         44.09309       93.87647       65.26360
H         46.37083       94.65896       66.76760
H         44.10455       95.18492       67.40251
H         44.97690       94.40270       68.76413
H         43.74755       92.26938       68.37310
H         42.95865       92.97892       66.91178
H         41.87800       94.72145       68.27277
H         42.59668       94.01997       69.77655
H         41.38185       91.86682       69.34358
H         40.72193       92.53552       67.80320
H         39.14666       92.70137       69.59258
H         40.21663       93.63862       70.52992
H         39.59865       94.24927       69.05665
N         45.85169       91.33299       67.01138
C         46.54585       90.09264       67.35355
C         47.89414       90.03473       66.65519
O         48.90191       89.90226       67.33669
C         45.65759       88.88035       67.00098
C         44.43796       88.82316       67.94640
C         43.46127       87.73435       67.61459
O         42.37375       87.56754       68.38981
O         43.62980       87.00553       66.65278
H         44.92655       91.27630       66.56248
H         46.73862       90.05872       68.44984
H         46.23070       87.93611       67.12600
H         45.33527       88.95487       65.93825
H         43.88066       89.77940       67.92426
H         44.80218       88.66254       68.98409
N         48.00095       90.19307       65.31002
C         49.28335       90.24967       64.64234
H         49.83131       89.29463       64.77943
H         49.13867       90.43462       63.55674
H         49.88609       91.08646       65.05947
H         47.15333       90.32328       64.74816
Ca        40.92415       84.78274       67.83014
O         39.42096       87.99235       67.32754
H         38.94764       88.83981       67.13378
H         39.66762       88.06155       68.28315
O         39.95421       86.69996       64.60566
H         39.06745       87.11262       64.44951
H         39.76548       85.91592       65.17748

Ca 1.0



