%chk=holoCaM-CaMKII.loop1.water2.frame203.chk
%nprocshared=20
%mem=10GB
%nosave
#b3lyp/svp scf=(tight,noincore,xqc) Test 
#IOP(5/87=12) Density=Current Pop=(MK,readradii) iop(6/33=2) iop(6/42=6)

holoCaM-CaMKII.loop1.water2.frame203 

   0  1 
C         -0.13373       77.75599       33.85852
C         -1.28769       78.13372       34.73882
O         -1.85773       79.19626       34.56553
H          0.76490       77.55845       34.48191
H         -0.38950       76.83601       33.29226
H          0.10216       78.56940       33.14050
N         -1.67748       77.29395       35.72876
C         -2.77275       77.55751       36.65233
C         -2.14945       77.71371       38.02965
O         -2.37805       76.90486       38.91648
C         -3.77170       76.39589       36.48521
C         -4.98372       76.38064       37.36973
O         -5.94049       77.32403       37.29181
O         -5.17744       75.40628       38.07726
H         -1.15265       76.41271       35.85122
H         -3.30310       78.50472       36.41372
H         -3.22381       75.44161       36.64190
H         -4.13848       76.40603       35.43492
N         -1.26939       78.74099       38.23100
C         -0.47849       78.93027       39.44757
C         -1.31079       79.32005       40.67592
O         -0.75645       79.32222       41.76554
C          0.61792       79.99354       39.15632
C          1.70758       80.18175       40.23212
C          2.52392       78.91628       40.55860
C          3.28641       78.35484       39.34534
N          4.09578       77.19817       39.72700
H         -1.08837       79.36826       37.43145
H          0.02101       77.95826       39.64533
H          0.12488       80.97463       38.97681
H          1.13030       79.72055       38.20941
H          1.25205       80.56534       41.16674
H          2.40854       80.96811       39.87504
H          1.86099       78.13317       40.98175
H          3.26354       79.18811       41.34278
H          3.95118       79.14389       38.92844
H          2.57316       78.04007       38.55391
H          3.48143       76.43693       40.09730
H          4.60365       76.84279       38.88474
H          4.79667       77.47218       40.45325
N         -2.63279       79.65575       40.58915
C         -3.46423       80.00318       41.75112
C         -4.55820       78.95886       42.01192
O         -5.25315       79.07905       43.01104
C         -4.00843       81.45448       41.64456
C         -4.86429       81.74389       40.44004
O         -5.08981       80.78483       39.53350
O         -5.32798       82.85943       40.27214
H         -3.06810       79.65188       39.66048
H         -2.84174       79.98949       42.67272
H         -3.14116       82.14967       41.61269
H         -4.59460       81.68613       42.56071
N         -4.69598       77.85603       41.22059
C         -5.52145       76.70405       41.54777
C         -7.01188       76.92891       41.48129
O         -7.69981       76.63161       42.44712
H         -4.10450       77.75504       40.39020
H         -5.22563       76.31082       42.54477
H         -5.30122       75.90652       40.80537
N         -7.58548       77.37074       40.33078
C         -9.02660       77.40778       40.08986
C         -9.40126       76.58614       38.84628
O        -10.55256       76.63074       38.43485
C         -9.51181       78.86885       40.02390
C         -8.79208       79.71653       39.02044
O         -8.83706       79.44449       37.83656
O         -8.10785       80.80210       39.42682
H         -6.96450       77.66411       39.56391
H         -9.58884       76.95635       40.93763
H         -9.35753       79.32185       41.02727
H        -10.60376       78.88951       39.81399
N         -8.50159       75.75033       38.24450
C         -8.80862       74.88169       37.11831
C         -8.88325       75.56939       35.76748
O         -9.06547       74.85452       34.79362
H         -7.57149       75.63314       38.66194
H         -9.73910       74.30856       37.32361
H         -7.98191       74.14282       37.02401
N         -8.73775       76.91927       35.60743
C         -8.74064       77.56777       34.29356
C         -7.47271       78.38631       34.07780
O         -6.68447       78.56314       34.99068
C        -10.00764       78.43615       34.10581
C        -11.28509       77.58198       34.08098
O        -10.09016       79.44190       35.08397
H         -8.61628       77.50985       36.43428
H         -8.74618       76.79800       33.49135
H         -9.95901       78.93617       33.11456
H        -10.43955       79.03208       35.91744
H        -11.22988       76.83976       33.25607
H        -11.42247       77.03979       35.04038
H        -12.16802       78.23309       33.90935
N         -7.19924       78.86292       32.82980
C         -5.98399       79.58394       32.46046
C         -6.38448       80.90080       31.80795
O         -7.18798       80.88931       30.88774
C         -5.13122       78.67303       31.52485
C         -4.63316       77.44435       32.34262
C         -3.93660       79.44181       30.92279
C         -3.92315       76.37261       31.51714
H         -7.86271       78.64415       32.07220
H         -5.35143       79.80531       33.34503
H         -5.77369       78.32707       30.68471
H         -5.49592       76.93792       32.82262
H         -3.94953       77.78861       33.15062
H         -4.28948       80.30323       30.31875
H         -3.26160       79.81603       31.72156
H         -3.35716       78.79968       30.22975
H         -3.00040       76.75814       31.04154
H         -3.62927       75.53656       32.18805
H         -4.60963       75.97584       30.74008
N         -5.81440       82.07451       32.21545
C         -6.14422       83.37793       31.63755
C         -5.00677       83.87037       30.76211
O         -3.97479       83.22716       30.68935
C         -6.43496       84.41915       32.75795
C         -7.63932       84.04636       33.62698
O         -5.29523       84.63892       33.55457
H         -5.07288       82.03608       32.92575
H         -7.03604       83.29270       30.98022
H         -6.69203       85.39276       32.29009
H         -5.23350       83.90917       34.22324
H         -7.45589       83.08433       34.14203
H         -7.80010       84.83469       34.39468
H         -8.55321       83.96210       33.00426
N         -5.14680       85.02566       30.05221
C         -4.07335       85.61847       29.25587
C         -2.90856       85.99596       30.15207
O         -1.77541       85.67821       29.81709
C         -4.56795       86.86529       28.48239
C         -5.61414       86.48764       27.42497
O         -5.09957       87.81484       29.37058
H         -6.05148       85.51508       30.10269
H         -3.71738       84.89041       28.49132
H         -3.68795       87.29828       27.94952
H         -5.13148       88.67878       28.88280
H         -5.91696       87.39134       26.85567
H         -5.18434       85.75504       26.70829
H         -6.51936       86.04491       27.88892
N         -3.13159       86.62486       31.34248
C         -2.08029       86.98635       32.28860
C         -1.18604       85.78866       32.57867
O          0.02147       85.89216       32.41554
C         -2.71881       87.44796       33.62229
C         -1.66728       87.92752       34.64945
C         -2.11275       87.73977       36.11119
C         -2.12495       86.24106       36.49322
N         -2.40527       86.03850       37.91136
H         -4.11042       86.81325       31.61006
H         -1.47101       87.81268       31.85917
H         -3.29021       86.58406       34.00573
H         -3.46465       88.25971       33.47376
H         -1.43865       88.99317       34.42976
H         -0.71146       87.37260       34.55458
H         -3.10334       88.21130       36.29039
H         -1.36134       88.24306       36.75694
H         -1.12974       85.79611       36.26309
H         -2.88697       85.69629       35.90739
H         -2.37681       85.01191       38.11420
H         -1.67875       86.51510       38.49275
H         -3.35541       86.40490       38.14560
N         -1.72753       84.62185       33.02720
C         -0.93647       83.45408       33.39215
C         -0.09402       82.98209       32.22172
O          1.11911       82.91865       32.36483
C         -1.84643       82.32051       33.91385
C         -2.50617       82.69914       35.25513
C         -3.37062       81.60813       35.81493
O         -4.35632       81.22465       35.20887
O         -3.08778       81.08121       37.02011
H         -2.75162       84.56925       33.11516
H         -0.24451       83.72694       34.22093
H         -1.20634       81.43574       34.08680
H         -2.61722       82.06379       33.15295
H         -3.13697       83.59646       35.13688
H         -1.70677       82.92738       35.99270
N         -0.66318       82.66077       31.02880
C          0.09241       82.23445       29.86858
H          1.18109       82.16232       30.07393
H         -0.27002       81.23882       29.53937
H         -0.05939       82.96369       29.04487
H         -1.67931       82.74005       30.92448
Ca        -5.65207       79.47713       37.81813
O         -8.28298       81.66547       36.20833
H         -9.02829       82.28829       36.01700
H         -8.13872       81.17533       35.36044
O         -6.03241       83.20301       37.20667
H         -5.34792       83.91711       37.17039
H         -6.59979       83.43863       37.98326

Ca 1.0



