%chk=holoCaM-CaMKII.loop4.water2.frame66.chk
%nprocshared=20
%mem=10GB
%nosave
#b3lyp/svp scf=(tight,noincore,xqc) Test 
#IOP(5/87=12) Density=Current Pop=(MK,readradii) iop(6/33=2) iop(6/42=6)

holoCaM-CaMKII.loop4.water2.frame66 

   -3  1 
C         83.48194       48.47050       59.40983
C         84.88764       48.29692       58.92192
O         85.60405       49.27794       58.78802
H         82.77034       48.04736       58.67021
H         83.36429       47.93379       60.37519
H         83.24749       49.54431       59.56622
N         85.34393       47.05156       58.62527
C         86.70457       46.76386       58.20107
C         86.68786       46.33346       56.74041
O         85.94202       45.43488       56.37751
C         87.29764       45.73079       59.17146
C         88.70605       45.36324       58.83785
O         89.02206       44.07199       58.66986
O         89.57187       46.21655       58.74890
H         84.68942       46.25695       58.70882
H         87.33856       47.67371       58.28278
H         86.67610       44.80921       59.18770
H         87.29346       46.17002       60.19387
N         87.47933       46.99048       55.84189
C         87.42005       46.84010       54.38739
C         88.63988       46.09630       53.83483
O         88.58982       45.68615       52.68337
C         87.27903       48.28130       53.77248
C         85.94613       48.92937       54.24087
C         87.40988       48.31831       52.23774
C         85.77259       50.39615       53.82813
H         88.13741       47.68751       56.20933
H         86.54248       46.21270       54.11426
H         88.12241       48.89367       54.16523
H         85.89756       48.90856       55.35086
H         85.08896       48.34229       53.84670
H         88.40631       47.95255       51.91812
H         86.61302       47.71850       51.75422
H         87.37346       49.35945       51.86107
H         84.82212       50.78561       54.24900
H         86.60199       51.01903       54.21552
H         85.71988       50.51362       52.72844
N         89.75654       45.87312       54.58140
C         90.93977       45.15956       54.08755
C         91.26390       43.91376       54.92176
O         92.20983       43.21634       54.58286
C         92.15947       46.11105       53.95913
C         92.58604       46.81320       55.22309
O         91.81304       46.76026       56.32143
O         93.62206       47.45727       55.23689
H         89.76592       46.23601       55.53816
H         90.75549       44.78114       53.05770
H         91.94396       46.88835       53.19368
H         93.01504       45.50769       53.58281
N         90.48798       43.52789       55.97314
C         90.65620       42.27445       56.69489
C         91.90784       42.16990       57.54496
O         92.59982       41.16766       57.44417
H         89.66982       44.09481       56.23052
H         90.58889       41.42141       55.98568
H         89.80139       42.16231       57.39200
N         92.21180       43.12599       58.46681
C         93.23844       42.97481       59.50452
C         92.63298       43.16939       60.89552
O         93.38143       43.25762       61.85913
C         94.46165       43.87621       59.22792
C         94.10911       45.27961       58.87302
O         94.33390       45.66750       57.73697
O         93.49612       46.11305       59.72854
H         91.64956       43.99141       58.47546
H         93.65958       41.94547       59.51271
H         94.97784       43.44050       58.34287
H         95.18394       43.85084       60.07145
N         91.28081       43.12923       61.08977
C         90.64974       43.17074       62.39722
C         90.63183       44.52951       63.05496
O         90.05323       44.60865       64.13171
H         90.65476       42.95094       60.29451
H         91.12193       42.41812       63.06556
H         89.58271       42.88262       62.27300
N         91.19802       45.64253       62.50160
C         91.09853       46.95737       63.12642
C         90.45289       47.96387       62.19178
O         90.21635       47.66569       61.02789
C         92.48983       47.44994       63.58659
C         93.09657       46.51056       64.64154
C         94.33971       47.09239       65.26754
N         95.44124       47.35904       64.52892
O         94.35076       47.32258       66.46801
H         91.70937       45.57126       61.61005
H         90.44747       46.91223       64.02698
H         92.37680       48.45234       64.05242
H         93.17648       47.54674       62.71715
H         93.33167       45.52385       64.18772
H         92.34614       46.35364       65.44771
H         95.46062       47.16908       63.51728
H         96.28164       47.75626       64.97593
N         90.14333       49.20016       62.66131
C         89.60330       50.28761       61.86055
C         90.63686       51.38765       61.85545
O         91.01282       51.85627       62.92396
C         88.23987       50.76758       62.44375
C         87.78277       52.11487       61.85212
C         87.14930       49.71787       62.17786
H         90.33435       49.40465       63.65601
H         89.42827       49.97487       60.80914
H         88.34430       50.91617       63.54163
H         88.50614       52.91758       62.10568
H         87.67889       52.05591       60.74957
H         86.80759       52.41755       62.29056
H         87.42075       48.73760       62.61925
H         86.18225       50.04500       62.61737
H         87.00395       49.58669       61.08304
N         91.10931       51.88007       60.67568
C         92.02259       53.00943       60.61184
C         91.23406       54.28920       60.42258
O         90.01331       54.24190       60.35213
C         93.15379       52.80972       59.56536
C         92.79346       53.06951       58.11689
N         91.95766       52.26871       57.42627
O         93.30994       54.01721       57.54309
H         90.70216       51.52067       59.80579
H         92.54209       53.10183       61.59100
H         93.61088       51.80405       59.67558
H         93.95012       53.54243       59.81729
H         91.53829       51.43754       57.85355
H         91.76197       52.47004       56.43450
N         91.87389       55.48313       60.35389
C         91.18555       56.76165       60.22829
C         90.27744       56.78447       59.01065
O         89.12814       57.18112       59.13131
C         92.23126       57.88816       60.12545
C         91.59965       59.25528       60.13961
C         90.91515       59.70473       61.28154
C         91.70016       60.09689       59.02124
C         90.34429       60.97901       61.30528
C         91.12456       61.36998       59.04547
C         90.44715       61.81645       60.19005
O         89.89562       63.04553       60.23051
H         92.90423       55.48211       60.40094
H         90.57264       56.92511       61.14262
H         92.82557       57.73595       59.19706
H         92.93491       57.83059       60.98431
H         90.83191       59.07289       62.15732
H         92.22111       59.76784       58.13056
H         89.82544       61.31623       62.19376
H         91.20880       62.00857       58.17568
H         89.95169       63.65823       59.48365
N         90.74681       56.37778       57.80131
C         89.95875       56.38370       56.57377
C         88.74218       55.45898       56.68405
O         87.63421       55.92720       56.46189
C         90.88810       56.03637       55.39013
C         90.26593       56.33773       54.01921
C         91.26461       56.18573       52.89826
O         90.92551       56.43635       51.75325
O         92.53658       55.80658       53.13968
H         91.72851       56.06758       57.75410
H         89.61062       57.42740       56.40098
H         91.23142       54.98018       55.45106
H         91.77968       56.69840       55.47992
H         89.91670       57.39389       54.00854
H         89.39765       55.67031       53.83916
N         88.86514       54.15204       57.07510
C         87.71774       53.24477       57.25747
C         86.72864       53.72818       58.31555
O         85.64262       53.16823       58.38256
C         88.19294       51.83489       57.68595
C         88.91357       51.08331       56.56190
C         89.55738       49.80571       57.02756
O         90.17878       49.12680       56.22763
O         89.48619       49.40894       58.31298
H         89.81291       53.80067       57.26875
H         87.16415       53.17768       56.29431
H         87.33425       51.20045       57.99826
H         88.85656       51.96283       58.56602
H         89.69522       51.71988       56.11639
H         88.18114       50.84250       55.77043
N         87.03130       54.72659       59.18898
C         86.11799       55.22771       60.19436
H         85.12890       54.72601       60.15917
H         86.55991       55.07360       61.20078
H         85.96484       56.31574       60.03362
H         87.96058       55.14759       59.16486
Ca        92.19943       47.37460       58.44243
O         93.82591       49.12480       60.19287
H         94.67262       48.68784       59.92258
H         93.96714       49.38476       61.13682
O         93.61523       49.76829       57.30224
H         92.96336       49.57942       56.58202
H         94.10876       50.56527       56.98576

Ca 1.0



