%chk=holoCaM.loop4.water3.frame396.chk
%nprocshared=20
%mem=10GB
%nosave
#b3lyp/svp scf=(tight,noincore,xqc) Test 
#IOP(5/87=12) Density=Current Pop=(MK,readradii) iop(6/33=2) iop(6/42=6)

holoCaM.loop4.water3.frame396 

   -3  1 
C         68.14641       53.99768       95.20794
C         66.76356       54.56831       95.26237
O         65.82300       53.79046       95.32967
H         68.91522       54.79571       95.16871
H         68.31696       53.38469       96.11919
H         68.24639       53.34873       94.31309
N         66.55264       55.91788       95.23627
C         65.21714       56.49176       95.35100
C         65.23466       58.00138       95.12634
O         66.01986       58.70049       95.75185
C         64.62056       56.20218       96.75035
C         63.15591       56.52804       96.83054
O         62.50658       56.39719       98.00181
O         62.53522       56.85648       95.83385
H         67.36469       56.54478       95.12840
H         64.57415       56.01219       94.57816
H         65.18057       56.78448       97.51311
H         64.70150       55.13011       97.01381
N         64.32092       58.56704       94.29090
C         64.21543       59.99253       94.00826
C         62.94739       60.56329       94.65597
O         63.03892       61.62665       95.25375
C         64.22455       60.20790       92.45647
C         65.52817       59.63471       91.83319
C         64.07239       61.70133       92.09417
C         65.52117       59.59503       90.30054
H         63.63869       57.94942       93.83224
H         65.08453       60.55170       94.42540
H         63.35714       59.65552       92.03066
H         65.66146       58.58853       92.16596
H         66.40927       60.21407       92.18651
H         64.92671       62.29003       92.49259
H         64.02278       61.84842       90.99646
H         63.12968       62.11741       92.50391
H         65.46997       60.60876       89.85635
H         66.45873       59.12020       89.94055
H         64.66338       58.98964       89.93686
N         61.72917       59.95127       94.52533
C         60.45518       60.59311       94.88283
C         59.56049       59.84949       95.89748
O         58.46750       60.33904       96.14848
C         59.69480       60.88309       93.56802
C         59.31582       59.67110       92.75842
O         59.59512       58.43106       93.18637
O         58.75156       59.81582       91.68704
H         61.70049       59.04282       94.04812
H         60.64689       61.58906       95.33873
H         60.34951       61.52010       92.93351
H         58.77194       61.45845       93.79120
N         59.94775       58.72506       96.56579
C         59.13684       58.07884       97.60531
C         57.90215       57.31562       97.12367
O         57.19226       56.78331       97.96502
H         60.89362       58.37258       96.41152
H         58.83395       58.84407       98.35302
H         59.76967       57.33411       98.13525
N         57.59420       57.19102       95.80442
C         56.43587       56.45536       95.26882
C         56.41907       54.93550       95.51269
O         55.46197       54.30580       95.08018
C         56.34352       56.69058       93.74230
C         57.58728       56.27483       92.99394
O         58.67973       55.82951       93.65866
O         57.63295       56.43722       91.78795
H         58.20090       57.68411       95.14097
H         55.51386       56.87572       95.72803
H         56.19046       57.77696       93.55999
H         55.46145       56.15635       93.32681
N         57.40306       54.26656       96.17593
C         57.37850       52.82409       96.39597
C         57.66342       51.97586       95.16076
O         57.66753       50.76183       95.30123
H         58.17416       54.79248       96.59335
H         56.40102       52.53671       96.84287
H         58.17012       52.56802       97.13225
N         57.93439       52.51956       93.93810
C         58.26308       51.73786       92.74375
C         59.64372       52.12448       92.22960
O         60.28459       52.97667       92.82659
C         57.17834       51.97447       91.67375
C         55.82616       51.41183       92.13962
C         54.74379       51.63929       91.11818
N         53.62403       52.32699       91.44326
O         54.86914       51.18441       89.99072
H         57.91518       53.53768       93.82939
H         58.30047       50.64934       92.96958
H         57.45342       51.45652       90.73023
H         57.09512       53.06377       91.46126
H         55.53525       51.88366       93.10204
H         55.92728       50.31725       92.30700
H         53.49257       52.70726       92.39210
H         52.87853       52.47201       90.74674
N         60.17506       51.51377       91.12620
C         61.50931       51.81077       90.61218
C         61.39136       52.39705       89.21292
O         60.79341       51.76774       88.35184
C         62.40286       50.53432       90.60026
C         63.85728       50.89261       90.24375
C         62.40096       49.81692       91.95816
H         59.62292       50.79634       90.63399
H         62.01327       52.54166       91.27050
H         62.01265       49.81865       89.84325
H         64.28413       51.58317       91.00385
H         64.49096       49.98152       90.21080
H         63.91319       51.37455       89.25081
H         63.05116       48.91585       91.91051
H         62.77498       50.48605       92.76206
H         61.37777       49.47395       92.21616
N         62.00107       53.57826       88.90612
C         62.02803       54.15296       87.56205
C         63.35669       53.81237       86.91377
O         64.19223       53.20056       87.55281
C         61.80348       55.68161       87.68035
C         61.78226       56.46117       86.39072
N         60.84215       56.21718       85.45009
O         62.60645       57.34461       86.20592
H         62.57183       54.03486       89.63123
H         61.23141       53.70115       86.93277
H         62.59524       56.10475       88.34085
H         60.82061       55.84485       88.14853
H         60.12836       55.48961       85.59612
H         60.82365       56.76532       84.57768
N         63.60152       54.12406       85.61599
C         64.87224       53.85167       84.95122
C         66.02098       54.63675       85.58590
O         67.06802       54.04579       85.81357
C         64.72494       54.01351       83.41894
C         64.15995       55.33249       82.94482
C         62.83285       55.38833       82.47586
C         64.93301       56.50138       82.94347
C         62.28559       56.59267       82.03373
C         64.38564       57.70662       82.48683
C         63.06123       57.75806       82.03723
O         62.54567       58.92817       81.61026
H         62.83963       54.54563       85.07245
H         65.11568       52.77065       85.07418
H         64.00873       53.21485       83.11921
H         65.67579       53.78485       82.89170
H         62.21181       54.50039       82.46576
H         65.96008       56.47824       83.28299
H         61.25879       56.61664       81.68974
H         64.99173       58.60310       82.48311
H         61.63272       59.00241       81.29648
N         65.87594       55.93792       85.98206
C         66.93363       56.70381       86.66114
C         67.31160       56.15980       88.04706
O         68.21970       56.71452       88.65131
C         66.51396       58.18085       86.84938
C         66.30545       58.92327       85.52606
C         65.95166       60.35923       85.78416
O         66.67234       61.25401       85.37198
O         64.83502       60.66691       86.47190
H         64.97631       56.39844       85.78872
H         67.84652       56.68175       86.02490
H         67.32151       58.71880       87.39575
H         65.58744       58.22435       87.46449
H         65.48448       58.46268       84.94713
H         67.24132       58.87028       84.92632
N         66.68408       55.09241       88.61329
C         67.00636       54.54907       89.92616
C         67.67232       53.19691       89.75086
O         68.78936       53.02494       90.21767
C         65.72413       54.39225       90.76564
C         64.96458       55.70666       91.00621
C         63.67781       55.46354       91.75517
O         62.81151       56.46559       91.97156
O         63.38030       54.34516       92.13547
H         65.94414       54.62289       88.09522
H         67.70892       55.21404       90.47689
H         65.98499       53.94203       91.74957
H         65.03692       53.70186       90.23287
H         64.70601       56.16502       90.02759
H         65.60161       56.40877       91.57867
N         67.04627       52.19417       89.07105
C         67.61871       50.88520       88.84345
H         68.62118       50.77497       89.30459
H         66.94393       50.11285       89.26804
H         67.70949       50.71485       87.74969
H         66.11534       52.35853       88.67616
Ca        60.78865       55.90629       92.83487
O         62.64605       53.48046       94.77313
O         60.17804       56.53457       90.27894
H         62.05999       52.68695       94.85229
H         59.55454       55.76391       90.27350
H         63.47761       53.12947       94.36977
H         59.63964       57.31033       90.56924
O         60.62733       54.63810       96.34606
H         60.45305       54.45726       97.30376
H         60.31080       55.56563       96.20419

Ca 1.0



