%chk=holoCaM-CaMKII.loop4.water2.frame57.chk
%nprocshared=20
%mem=10GB
%nosave
#b3lyp/svp scf=(tight,noincore,xqc) Test 
#IOP(5/87=12) Density=Current Pop=(MK,readradii) iop(6/33=2) iop(6/42=6)

holoCaM-CaMKII.loop4.water2.frame57 

   -3  1 
C          5.49846       48.74480       67.79334
C          6.89249       48.42652       67.34668
O          7.57760       49.30215       66.84347
H          4.78073       48.10227       67.24007
H          5.40092       48.54653       68.88105
H          5.25269       49.80908       67.59433
N          7.37833       47.16830       67.50855
C          8.70586       46.75092       67.07366
C          8.82038       46.86162       65.55660
O          7.97477       46.32549       64.85411
C          8.95919       45.31330       67.55998
C         10.31407       44.81316       67.17948
O         10.41623       43.68633       66.45899
O         11.32050       45.40611       67.53183
H          6.76521       46.47471       67.96653
H          9.47022       47.39567       67.56475
H          8.18817       44.62749       67.14602
H          8.88691       45.29276       68.66969
N          9.86138       47.54186       64.99322
C         10.01505       47.77504       63.55771
C         11.20191       46.95298       63.04023
O         10.99876       46.07491       62.21440
C         10.16471       49.31532       63.26503
C          9.02672       50.13091       63.94121
C         10.21896       49.58333       61.75134
C          9.11837       51.65110       63.75259
H         10.58209       47.90592       65.62258
H          9.10279       47.42172       63.02711
H         11.11830       49.67909       63.69642
H          9.08773       49.95850       65.03293
H          8.03475       49.78586       63.57909
H         10.40790       50.65747       61.54523
H         11.05539       49.02383       61.28545
H          9.26469       49.28683       61.26790
H          8.31900       52.14533       64.34648
H         10.09726       52.03612       64.10212
H          8.97138       51.94159       62.69340
N         12.47011       47.19356       63.48223
C         13.67228       46.47346       63.03416
C         13.76305       45.00426       63.48439
O         14.70276       44.34577       63.05881
C         14.95329       47.23880       63.45702
C         14.93996       47.58044       64.91778
O         14.74099       46.63509       65.85305
O         14.96199       48.75413       65.25507
H         12.58703       47.97822       64.12790
H         13.67498       46.46728       61.92128
H         14.99286       48.19474       62.88563
H         15.86334       46.66089       63.19048
N         12.83043       44.39654       64.27343
C         12.82096       42.95264       64.50510
C         13.79259       42.42954       65.55068
O         14.58065       41.55259       65.22762
H         12.01647       44.93607       64.59726
H         12.96630       42.42703       63.53545
H         11.81613       42.65489       64.85037
N         13.73809       42.86242       66.84422
C         14.51285       42.26947       67.94202
C         13.64184       41.89611       69.15364
O         14.19959       41.46380       70.15479
C         15.64564       43.22275       68.36385
C         15.16349       44.59030       68.73461
O         14.23962       44.75207       69.69508
O         15.61873       45.56619       68.16582
H         13.11385       43.65033       67.06357
H         15.01481       41.33291       67.61361
H         16.36832       43.31190       67.52352
H         16.19453       42.78559       69.22651
N         12.28426       42.02698       69.15254
C         11.44820       41.75563       70.31208
C         11.68956       42.76092       71.41645
O         11.90495       42.36169       72.54444
H         11.79815       42.33004       68.29910
H         11.58989       40.71155       70.67110
H         10.38403       41.86722       70.01071
N         11.61033       44.09209       71.13281
C         11.71809       45.20342       72.09155
C         11.43576       46.53970       71.39251
O         11.32716       46.61843       70.17976
C         13.11068       45.30691       72.80208
C         13.20535       44.59975       74.16793
C         14.52826       44.87941       74.83656
N         15.68447       44.42778       74.29778
O         14.55466       45.50943       75.88366
H         11.40925       44.31445       70.14907
H         10.91128       45.10224       72.84974
H         13.30213       46.37001       73.06777
H         13.92739       45.01857       72.11336
H         13.09998       43.50856       74.10562
H         12.38825       44.99438       74.81303
H         15.68057       43.88140       73.42447
H         16.58561       44.61369       74.76280
N         11.28676       47.65106       72.16398
C         11.02269       48.98692       71.65192
C         12.15707       49.88087       72.11125
O         12.36901       49.96698       73.31235
C          9.65354       49.47401       72.22056
C          9.36561       50.95047       71.90234
C          8.50139       48.61063       71.67934
H         11.35155       47.54594       73.18746
H         10.96783       49.00555       70.54113
H          9.67122       49.37574       73.32950
H         10.13979       51.60510       72.35158
H          9.32751       51.12369       70.80804
H          8.39202       51.25196       72.34608
H          7.53626       48.93593       72.12446
H          8.42944       48.70358       70.57363
H          8.64904       47.54172       71.93860
N         12.88744       50.62554       71.22200
C         13.84112       51.63122       71.68441
C         13.16520       52.98537       71.65911
O         12.02097       53.07517       71.24897
C         15.21781       51.59920       70.96095
C         15.30184       52.23661       69.59094
N         14.73889       51.67059       68.50719
O         15.94405       53.26779       69.45483
H         12.64185       50.59544       70.22553
H         14.08194       51.43276       72.75005
H         15.62475       50.56812       70.93011
H         15.91343       52.18137       71.60259
H         14.23759       50.78143       68.58552
H         14.84174       52.11127       67.57956
N         13.80598       54.08401       72.12875
C         13.19021       55.40544       72.20636
C         12.67388       55.87995       70.85827
O         11.54170       56.33850       70.78978
C         14.20873       56.38831       72.80937
C         13.70842       57.80901       72.85853
C         12.48831       58.13174       73.47805
C         14.47497       58.83050       72.27622
C         12.04060       59.45496       73.50171
C         14.03335       60.15311       72.31516
C         12.81192       60.46986       72.92552
O         12.37282       61.74308       72.96559
H         14.77344       53.96858       72.46440
H         12.32091       55.35469       72.89850
H         15.15371       56.34195       72.22324
H         14.43555       56.05104       73.84425
H         11.87604       57.36338       73.93210
H         15.42142       58.60545       71.79962
H         11.09383       59.69086       73.97059
H         14.64251       60.92885       71.86971
H         12.88297       62.47243       72.58560
N         13.43057       55.75444       69.73943
C         12.97306       56.13594       68.40402
C         11.64962       55.46015       68.06845
O         10.71210       56.14219       67.67898
C         14.03855       55.74464       67.35290
C         15.34360       56.54204       67.52610
C         16.39689       56.06351       66.57057
O         16.87027       56.82425       65.74214
O         16.84623       54.79539       66.64454
H         14.35581       55.31598       69.84717
H         12.82032       57.23732       68.35270
H         13.64830       55.94557       66.32991
H         14.24281       54.65392       67.43505
H         15.75424       56.42951       68.54933
H         15.13107       57.62071       67.35614
N         11.51076       54.11478       68.20207
C         10.29795       53.38178       67.82959
C          9.09622       53.79178       68.66186
O          7.98584       53.74893       68.15002
C         10.52893       51.85458       67.91396
C         11.67991       51.47164       66.97730
C         12.04652       50.03004       66.96579
O         12.23264       49.50477       65.88920
O         12.35056       49.34079       68.08213
H         12.32150       53.59999       68.57192
H         10.06689       53.61091       66.76387
H          9.60877       51.31035       67.60605
H         10.78062       51.56835       68.95745
H         12.59380       52.00201       67.25782
H         11.44343       51.79318       65.94205
N          9.23729       54.21023       69.94806
C          8.11859       54.63409       70.75835
H          7.39337       53.80175       70.87367
H          8.47900       54.93650       71.76532
H          7.62011       55.50661       70.28540
H         10.16894       54.24133       70.37105
Ca        13.50711       47.48478       67.54154
O         14.74570       47.39655       70.65464
H         15.61884       46.92966       70.66962
H         14.97874       48.35169       70.55766
O         16.20626       48.99309       68.22224
H         16.86016       49.59376       67.78540
H         16.32082       48.12484       67.76278

Ca 1.0



