%chk=holoCaM-CaMKII.loop4.water1.frame395.chk
%nprocshared=20
%mem=10GB
%nosave
#b3lyp/svp scf=(tight,noincore,xqc) Test 
#IOP(5/87=12) Density=Current Pop=(MK,readradii) iop(6/33=2) iop(6/42=6)

holoCaM-CaMKII.loop4.water1.frame395 

   -3  1 
C         58.22724       78.22720       89.57121
C         59.28811       78.26092       90.62875
O         60.46621       78.24840       90.30049
H         57.60291       79.14309       89.64848
H         58.68048       78.19088       88.55807
H         57.58368       77.33480       89.71462
N         58.93068       78.33623       91.93913
C         59.90561       78.44840       93.01453
C         60.73653       77.17308       93.11864
O         60.18913       76.11735       93.40513
C         59.17408       78.76127       94.33375
C         60.07270       79.13942       95.47141
O         59.50866       79.47544       96.64137
O         61.28710       79.18513       95.34902
H         57.92373       78.37267       92.16572
H         60.55221       79.32568       92.78348
H         58.54223       77.89596       94.63157
H         58.50657       79.63458       94.16661
N         62.07167       77.20638       92.85437
C         62.94157       76.03012       92.88000
C         63.09699       75.49651       94.29991
O         62.90716       74.30673       94.50979
C         64.35186       76.35336       92.26904
C         64.21192       76.81706       90.78816
C         65.27712       75.11782       92.35631
C         65.54070       77.14818       90.09803
H         62.47433       78.11270       92.58409
H         62.50306       75.23512       92.23449
H         64.82732       77.16690       92.85797
H         63.59054       77.73283       90.74037
H         63.69869       76.03162       90.19247
H         65.41147       74.78731       93.40646
H         64.86118       74.27513       91.76426
H         66.29694       75.35160       91.99198
H         66.17417       76.24726       89.98104
H         65.33872       77.53662       89.07791
H         66.10708       77.91286       90.66597
N         63.49471       76.32201       95.30812
C         63.90472       75.85731       96.63708
C         62.86022       76.06084       97.72590
O         63.12820       75.67968       98.85766
C         65.27176       76.48328       97.00684
C         65.29639       77.99361       97.07642
O         64.18947       78.72875       96.85492
O         66.35417       78.56289       97.29107
H         63.55961       77.32333       95.08957
H         64.06060       74.75593       96.60999
H         66.00502       76.17356       96.23021
H         65.61849       76.07573       97.98112
N         61.62470       76.56350       97.46014
C         60.56071       76.60766       98.45010
C         60.84689       77.53438       99.60691
O         60.80197       77.09440      100.74702
H         61.38993       76.85209       96.50148
H         60.36279       75.57811       98.82338
H         59.63202       76.96805       97.95850
N         61.08966       78.85268       99.37965
C         61.21082       79.85489      100.43304
C         60.12566       80.92210      100.29549
O         60.22123       81.94468      100.96145
C         62.62864       80.46704      100.44060
C         63.01156       81.26255       99.22621
O         64.22286       81.84867       99.18791
O         62.24608       81.40252       98.28725
H         61.15425       79.16906       98.40387
H         61.08667       79.39541      101.43826
H         63.36813       79.64866      100.57530
H         62.71230       81.14594      101.31712
N         59.02731       80.73169       99.50293
C         57.96785       81.71677       99.38878
C         58.32925       82.90580       98.52256
O         57.59343       83.88029       98.57308
H         58.88266       79.82927       99.03076
H         57.67221       82.04677      100.40847
H         57.06905       81.25351       98.92585
N         59.36158       82.87226       97.62302
C         59.62611       83.98917       96.70900
C         60.41492       83.56470       95.47165
O         60.94307       82.46325       95.43002
C         60.23484       85.18989       97.47562
C         61.58194       84.88704       98.16223
C         62.73346       84.83289       97.19494
N         63.09307       85.94121       96.50657
O         63.36690       83.79904       97.05378
H         59.89671       82.00062       97.52666
H         58.64077       84.29546       96.29135
H         59.52101       85.46248       98.28008
H         60.32354       86.08025       96.81791
H         61.49600       83.94463       98.74519
H         61.81246       85.69857       98.88506
H         62.58795       86.82923       96.63734
H         63.89170       85.92451       95.85912
N         60.40222       84.36451       94.36040
C         60.92042       83.94312       93.05886
C         61.90739       84.97642       92.52403
O         61.51724       86.11161       92.29107
C         59.71949       83.71844       92.08766
C         60.16765       83.29556       90.68126
C         58.77214       82.63368       92.63644
H         59.90163       85.26487       94.40733
H         61.43733       82.96985       93.14587
H         59.14809       84.66811       91.99244
H         60.80886       84.07199       90.22260
H         60.71333       82.33175       90.71680
H         59.28359       83.16520       90.02068
H         59.30896       81.66565       92.74227
H         58.36165       82.92142       93.62593
H         57.91154       82.48482       91.94992
N         63.21041       84.63505       92.29189
C         64.19233       85.53535       91.68801
C         64.02590       85.53258       90.17132
O         63.18733       84.80688       89.66541
C         65.64229       85.08588       92.02727
C         66.01680       85.20466       93.48936
N         65.48926       84.39402       94.43567
O         66.85220       86.03434       93.81841
H         63.50083       83.66929       92.48033
H         64.05393       86.56868       92.07667
H         66.34363       85.74761       91.47696
H         65.83235       84.04892       91.67481
H         64.81495       83.65659       94.20473
H         65.78482       84.48707       95.41891
N         64.82414       86.29736       89.37080
C         64.79567       86.21298       87.91094
C         65.16871       84.80685       87.46315
O         64.43097       84.20987       86.69192
C         65.78257       87.22818       87.29094
C         65.76318       87.17669       85.77770
C         64.58990       87.48693       85.06720
C         66.91707       86.80974       85.06380
C         64.57036       87.42478       83.67077
C         66.89486       86.74828       83.66673
C         65.71967       87.05473       82.96560
O         65.68274       86.99694       81.61893
H         65.50072       86.93751       89.81271
H         63.77376       86.46537       87.55126
H         66.80661       87.01383       87.66932
H         65.51426       88.25682       87.61516
H         63.68848       87.77568       85.59219
H         67.83313       86.56450       85.58651
H         63.65923       87.66334       83.13641
H         67.79054       86.46028       83.13081
H         66.45464       86.74362       81.09285
N         66.29822       84.21409       87.94696
C         66.74091       82.86601       87.59685
C         65.62614       81.85825       87.78340
O         65.33950       81.11887       86.85153
C         67.95911       82.48146       88.48057
C         68.49177       81.04508       88.28247
C         69.08375       80.75765       86.92785
O         69.14827       81.61531       86.06193
O         69.57401       79.52901       86.67640
H         66.85651       84.74484       88.63386
H         67.04481       82.85378       86.52842
H         67.65391       82.56750       89.54728
H         68.78688       83.20427       88.31078
H         67.67773       80.31607       88.48317
H         69.28917       80.86746       89.03582
N         64.95591       81.77448       88.96421
C         63.91838       80.78058       89.21433
C         62.80297       80.90125       88.18636
O         62.55156       79.93599       87.47810
C         63.38421       80.87767       90.66422
C         64.50507       80.64557       91.69878
C         63.98770       80.52374       93.10202
O         64.21517       79.51636       93.74935
O         63.30687       81.52758       93.67403
H         65.20521       82.44509       89.70484
H         64.36899       79.76983       89.10653
H         62.60879       80.09128       90.79379
H         62.92139       81.86904       90.84474
H         65.23807       81.47642       91.67280
H         65.03921       79.71098       91.44930
N         62.13015       82.07145       88.01600
C         61.11281       82.27865       87.00413
H         60.16187       82.57978       87.48940
H         61.43856       83.09308       86.32163
H         60.92809       81.37034       86.39317
H         62.36777       82.86934       88.61175
Ca        64.36536       80.94134       96.45356
O         67.03170       81.62469       95.10401
H         66.84083       80.66210       95.23687
H         66.84147       82.04035       95.98273

Ca 1.0



