%chk=holoCaM.loop1.water2.frame210.chk
%nprocshared=20
%mem=10GB
%nosave
#b3lyp/svp scf=(tight,noincore,xqc) Test 
#IOP(5/87=12) Density=Current Pop=(MK,readradii) iop(6/33=2) iop(6/42=6)

holoCaM.loop1.water2.frame210 

   0  1 
C         21.39017       71.61928      111.52967
C         21.72835       71.13187      112.90608
O         21.56113       71.87285      113.86427
H         22.29979       71.58818      110.89347
H         20.61134       70.96576      111.08351
H         21.01012       72.66226      111.56134
N         22.21240       69.87104      113.07397
C         22.56734       69.31950      114.37598
C         23.70142       70.13003      115.00296
O         24.81754       70.09993      114.50371
C         22.93949       67.83357      114.20265
C         23.42588       67.19434      115.46042
O         22.64690       67.14455      116.55220
O         24.54051       66.70589      115.48824
H         22.31327       69.27945      112.23350
H         21.66722       69.37122      115.03041
H         23.73836       67.74439      113.43328
H         22.04766       67.27659      113.83899
N         23.44356       70.93292      116.07628
C         24.41867       71.85497      116.66115
C         25.39316       71.20456      117.64086
O         26.26844       71.91914      118.11032
C         23.69321       73.04491      117.35603
C         22.84818       72.64509      118.58320
C         22.08152       73.83651      119.17328
C         21.07202       73.41942      120.26286
N         21.71326       72.83571      121.44066
H         22.46208       71.00112      116.36754
H         25.00217       72.30501      115.82678
H         23.03323       73.53008      116.60331
H         24.44601       73.79797      117.67723
H         23.50165       72.19197      119.35434
H         22.09709       71.90984      118.27884
H         21.49207       74.31042      118.35823
H         22.79469       74.58851      119.57377
H         20.34224       72.69294      119.83880
H         20.50483       74.32229      120.57755
H         22.40235       73.50622      121.85042
H         20.98062       72.61796      122.15445
H         22.18871       71.94475      121.19151
N         25.29540       69.90024      118.04161
C         26.15282       69.33119      119.08965
C         26.99071       68.15492      118.61610
O         27.75161       67.62805      119.41769
C         25.27191       68.82436      120.24249
C         24.40351       69.88751      120.83564
O         24.95248       70.97414      121.40994
O         23.19138       69.75462      120.82313
H         24.55541       69.30254      117.64361
H         26.85709       70.09536      119.48392
H         25.90289       68.40433      121.05539
H         24.63101       68.01638      119.84079
N         26.88388       67.64960      117.36025
C         27.57628       66.44800      116.93461
C         27.15986       65.24244      117.75433
O         28.02306       64.50926      118.21456
H         26.26249       68.10087      116.67638
H         28.67824       66.59268      116.97264
H         27.29649       66.24552      115.87817
N         25.83863       64.97030      117.95072
C         25.33016       63.75606      118.58200
C         24.46128       62.95381      117.60878
O         23.97038       61.90197      117.99494
C         24.54886       64.08921      119.87412
C         23.42698       65.07372      119.69202
O         23.33984       66.13848      120.50735
O         22.57149       64.89983      118.84301
H         25.14702       65.65010      117.60684
H         26.16759       63.08674      118.87661
H         25.24763       64.49981      120.63498
H         24.12863       63.14644      120.28579
N         24.23592       63.37541      116.33056
C         23.42397       62.66052      115.36593
C         21.97973       62.55096      115.79063
O         21.43921       61.45930      115.72067
H         24.66700       64.24103      115.98729
H         23.85708       61.65570      115.16702
H         23.44305       63.23020      114.41073
N         21.27781       63.66288      116.15622
C         19.83352       63.68310      116.42892
C         19.28464       65.11499      116.41008
O         20.03870       66.07691      116.45538
C         19.39728       62.99236      117.76178
C         19.51793       61.46149      117.82257
O         20.03525       63.58176      118.86369
H         21.79601       64.55318      116.13003
H         19.33760       63.18069      115.56876
H         18.30623       63.16911      117.87661
H         20.92381       63.15039      118.95791
H         19.04780       61.09639      118.76050
H         18.98638       60.99951      116.96369
H         20.57109       61.12431      117.85461
N         17.94523       65.30736      116.23843
C         17.31531       66.60940      116.03604
C         16.16397       66.79720      117.01868
O         15.33307       65.91258      117.16838
C         16.87019       66.72470      114.54444
C         18.14922       66.79251      113.65600
C         15.97937       67.96049      114.30650
C         17.89108       66.87247      112.15284
H         17.34331       64.47480      116.14157
H         18.03671       67.43961      116.19851
H         16.26682       65.82938      114.27623
H         18.76647       65.88610      113.82737
H         18.75699       67.68002      113.94621
H         16.52358       68.89414      114.54183
H         15.62876       68.00424      113.25675
H         15.06122       67.90668      114.92559
H         17.35759       67.80529      111.88082
H         18.86630       66.88649      111.62015
H         17.31016       65.99029      111.81459
N         16.02576       67.99555      117.65438
C         14.95364       68.36000      118.57088
C         14.08149       69.42137      117.90926
O         14.28937       69.72449      116.74204
C         15.55861       68.90582      119.90011
C         16.51343       67.91242      120.57689
O         16.17939       70.15575      119.70809
H         16.69197       68.73749      117.42885
H         14.31751       67.47995      118.80893
H         14.73657       69.07151      120.62605
H         17.07727       70.00604      119.32351
H         17.38870       67.70161      119.92815
H         16.88271       68.34326      121.53241
H         15.98703       66.96024      120.79421
N         13.10186       70.05953      118.60724
C         12.31924       71.15825      118.04686
C         13.23411       72.29113      117.58884
O         13.12707       72.70960      116.44586
C         11.27754       71.69173      119.06903
C         10.21642       70.63949      119.41125
O         11.91268       72.11471      120.24914
H         12.93562       69.78264      119.58443
H         11.75078       70.79282      117.16138
H         10.75544       72.55338      118.58799
H         11.32942       72.80170      120.66569
H         10.66663       69.75079      119.89923
H          9.47025       71.07630      120.10857
H          9.68668       70.31603      118.49056
N         14.14127       72.84814      118.43958
C         14.97469       74.00177      118.09582
C         16.10748       73.70275      117.10721
O         16.79589       74.64843      116.74848
C         15.50640       74.65548      119.39406
C         14.32784       75.25144      120.19269
C         14.76115       75.89344      121.51401
C         13.60841       76.65888      122.19659
N         12.46110       75.80535      122.51619
H         14.18823       72.47819      119.40048
H         14.33193       74.76806      117.60599
H         16.19488       75.49257      119.14477
H         16.06862       73.90660      119.99486
H         13.58317       74.46065      120.41347
H         13.84377       76.02852      119.56056
H         15.57218       76.62693      121.31469
H         15.15734       75.10880      122.19491
H         13.27311       77.48952      121.53581
H         13.99762       77.10943      123.13591
H         11.75282       76.37337      123.03515
H         12.00461       75.45378      121.64448
H         12.75923       75.00319      123.11632
N         16.33704       72.46272      116.57759
C         17.34656       72.20318      115.54307
C         16.69503       71.84697      114.20656
O         17.42420       71.71365      113.23299
C         18.26330       71.03389      115.96353
C         19.02809       71.27155      117.27140
C         19.65846       69.99043      117.76382
O         20.97595       69.88895      117.97566
O         18.96154       69.02980      118.03177
H         15.75246       71.67604      116.87982
H         17.96338       73.11076      115.36368
H         18.99920       70.80010      115.16149
H         17.60923       70.15486      116.08328
H         18.32787       71.61403      118.06035
H         19.79303       72.06332      117.11662
N         15.34712       71.66440      114.07491
C         14.69712       71.32397      112.82549
H         13.93207       72.09376      112.59040
H         15.40827       71.26389      111.97616
H         14.19035       70.34149      112.93207
H         14.73060       71.74771      114.88842
Ca        21.67956       68.01186      119.00507
O         19.68287       69.44784      121.11121
H         20.44988       69.64247      121.70588
H         19.43293       70.32807      120.73323
O         19.52327       66.06465      120.41278
H         19.97036       66.15581      121.29127
H         18.87229       65.32953      120.54097

Ca 1.0



