%chk=holoCaM.loop3.water1.frame91.chk
%nprocshared=20
%mem=10GB
%nosave
#b3lyp/svp scf=(tight,noincore,xqc) Test 
#IOP(5/87=12) Density=Current Pop=(MK,readradii) iop(6/33=2) iop(6/42=6)

holoCaM.loop3.water1.frame91 

   0  1 
C        103.67832       13.91476       36.22065
C        102.90536       12.78397       35.60985
O        103.41031       11.67082       35.58093
H        104.62885       14.05626       35.66581
H        103.10390       14.86472       36.18562
H        103.90338       13.67805       37.28131
N        101.65908       12.99492       35.10370
C        100.85815       11.93292       34.50943
C        101.56170       11.39222       33.27371
O        101.80588       12.15835       32.35041
C         99.46394       12.48631       34.15315
C         98.49475       11.45011       33.67220
O         98.78947       10.26885       33.61722
O         97.26716       11.83945       33.30900
H        101.26175       13.94616       35.16067
H        100.72196       11.13257       35.27138
H         99.56757       13.27406       33.37587
H         99.01389       12.95165       35.05698
N        101.96763       10.09078       33.20970
C        102.74081        9.57060       32.08430
C        101.93630        9.40057       30.79717
O        102.56404        9.19656       29.76977
C        103.49956        8.28601       32.48346
C        104.63082        8.64002       33.47120
C        105.49208        7.42748       33.84512
C        106.79124        7.83225       34.57134
N        106.55203        8.49083       35.85634
H        101.80175        9.48515       34.02912
H        103.51924       10.32660       31.83278
H        103.98097        7.85117       31.58079
H        102.79973        7.52994       32.90436
H        104.21398        9.10553       34.38910
H        105.29003        9.38038       32.96587
H        105.80175        6.91107       32.91079
H        104.90073        6.71428       34.45935
H        107.38403        8.50878       33.91469
H        107.39747        6.91596       34.74336
H        106.01727        7.85650       36.49194
H        107.47548        8.71022       36.29625
H        106.03722        9.39028       35.72558
N        100.57615        9.52521       30.75153
C         99.82374        9.59279       29.49442
C         99.13141       10.95063       29.33352
O         98.56402       11.18908       28.27361
C         98.85700        8.39828       29.35663
C         97.88219        8.25369       30.49086
O         97.07353        9.13109       30.73126
O         97.88094        7.13152       31.23488
H        100.05522        9.62435       31.62850
H        100.51894        9.52195       28.62961
H         99.46426        7.46879       29.30267
H         98.29672        8.48513       28.39897
N         99.18701       11.91274       30.30136
C         98.69724       13.27223       30.14630
C         97.19487       13.43598       30.02415
O         96.77849       14.57793       29.88466
H         99.67876       11.72298       31.17918
H         99.18968       13.72491       29.25761
H         99.01297       13.86302       31.03379
N         96.31227       12.39249       30.04127
C         94.88313       12.59967       29.81501
C         94.16707       13.37349       30.93615
O         93.02734       13.75578       30.71015
C         94.13984       11.27454       29.46832
C         94.15747       10.15619       30.52984
N         93.12033        9.17515       30.23581
O         93.90559       10.68280       31.77809
H         96.66507       11.43494       30.12886
H         94.79896       13.22316       28.89543
H         94.56754       10.84587       28.53592
H         93.08322       11.54419       29.25228
H         93.37766        8.63719       29.38119
H         93.04045        8.51352       31.04132
N         94.73277       13.62326       32.15793
C         94.06920       14.37688       33.22512
C         93.71103       13.54608       34.46035
O         93.17934       14.11729       35.40063
H         95.67535       13.27301       32.35101
H         93.12006       14.82506       32.86109
H         94.73569       15.21458       33.52219
N         93.89932       12.19608       34.50052
C         93.46663       11.30679       35.58267
C         94.57031       10.31278       36.05401
O         95.81738       10.47145       35.44274
C         92.31169       10.39221       35.12415
C         91.01941       11.10205       34.81000
C         90.86672       11.87851       33.64862
C         89.92636       10.94997       35.68073
C         89.63762       12.48757       33.36700
C         88.70654       11.56513       35.40307
C         88.55534       12.33365       34.24226
O         87.37588       12.92132       33.95798
H         94.31446       11.78213       33.68316
H         93.10760       11.90522       36.44908
H         92.11316        9.68604       35.96156
H         92.61308        9.76873       34.25259
H         91.68542       11.99694       32.95098
H         90.01708       10.35443       36.58099
H         89.52311       13.07368       32.46397
H         87.87927       11.43671       36.08967
H         86.60536       12.82969       34.53734
N         94.64349       10.20715       37.52362
C         95.55110        9.14365       38.01858
C         94.81990        8.12181       38.90327
O         94.27302        8.48513       39.93428
C         96.76032        9.78535       38.77208
C         96.30180       10.72798       39.92319
C         97.67038       10.52648       37.77541
C         97.44794       11.37460       40.69800
H         93.67283       10.05765       37.88684
H         95.96829        8.56719       37.16563
H         97.37052        8.96092       39.20236
H         95.71692       10.15847       40.66829
H         95.65569       11.53785       39.52003
H         98.60572       10.86466       38.26325
H         97.97869        9.84292       36.95641
H         97.15585       11.41103       37.34658
H         98.03210       12.06047       40.05222
H         97.02793       11.98086       41.52835
H         98.11400       10.59484       41.12277
N         94.76767        6.80691       38.54203
C         94.15753        5.77202       39.37952
C         95.08293        5.39621       40.53086
O         96.17415        5.93579       40.61641
C         93.84451        4.53228       38.51961
O         95.02229        3.99736       37.97568
H         95.18279        6.52868       37.64027
H         93.18539        6.13915       39.77589
H         93.14387        4.85018       37.71177
H         93.33294        3.74967       39.11875
H         94.80342        3.67618       37.06264
N         94.73256        4.43714       41.43577
C         95.65370        3.94664       42.46073
C         96.89654        3.35078       41.81580
O         97.98974        3.56890       42.31792
C         94.97449        2.89720       43.34788
H         93.79685        4.00832       41.36577
H         95.95266        4.78500       43.12948
H         94.08921        3.34506       43.84875
H         94.64711        2.01892       42.75266
H         95.67694        2.55390       44.13911
N         96.79782        2.63583       40.65697
C         97.94768        2.09408       39.94075
C         98.92959        3.18593       39.55996
O        100.09876        3.06833       39.90101
C         97.48826        1.36710       38.66896
H         95.86044        2.49173       40.25133
H         98.45993        1.34594       40.58583
H         96.96746        2.06203       37.97620
H         98.36345        0.93260       38.13941
H         96.79283        0.54236       38.93104
N         98.52443        4.27642       38.84703
C         99.44165        5.32559       38.40894
C        100.14501        5.94413       39.60480
O        101.36240        5.85303       39.68463
C         98.71139        6.40551       37.57479
C         98.11681        5.83183       36.27469
C         97.49375        6.90979       35.43800
O         96.30954        6.85995       35.14708
O         98.24737        7.92624       34.98295
H         97.52599        4.35149       38.60823
H        100.21514        4.86702       37.75165
H         99.44898        7.19374       37.30406
H         97.90229        6.87357       38.17476
H         97.34819        5.06505       36.50559
H         98.92012        5.35278       35.67596
N         99.44169        6.55816       40.59278
C        100.07540        7.08270       41.78185
H        100.80982        7.86929       41.51105
H         99.30878        7.52028       42.45648
H        100.59091        6.26081       42.32442
H         98.42326        6.64002       40.51227
Ca        95.42099        9.80964       33.27517
O         94.36913        6.95605       32.72030
H         93.45654        6.84371       33.08792
H         94.81668        6.09032       32.89279

Ca 1.0



