%chk=holoCaM.loop2.water2.frame82.chk
%nprocshared=20
%mem=10GB
%nosave
#b3lyp/svp scf=(tight,noincore,xqc) Test 
#IOP(5/87=12) Density=Current Pop=(MK,readradii) iop(6/33=2) iop(6/42=6)

holoCaM.loop2.water2.frame82 

   -2  1 
C         -1.17705       29.04084        5.27509
C         -1.00032       29.88111        4.04552
O         -0.29404       29.47774        3.13462
H         -2.25136       28.77092        5.37276
H         -0.58488       28.10415        5.20678
H         -0.86523       29.60918        6.17534
N         -1.65766       31.06602        3.94571
C         -1.67080       31.88151        2.73799
C         -0.28052       32.38847        2.35800
O          0.40016       32.96031        3.19780
C         -2.63832       33.07172        2.92652
C         -3.02631       33.72186        1.62977
O         -3.83009       34.80004        1.63996
O         -2.68795       33.23786        0.56436
H         -2.23714       31.36003        4.74818
H         -2.08168       31.24334        1.92561
H         -2.18428       33.81658        3.61449
H         -3.59061       32.71794        3.37551
N          0.17324       32.24370        1.07891
C          1.48294       32.67291        0.59720
C          1.39719       33.76300       -0.47397
O          2.44166       34.19882       -0.93926
C          2.18108       31.45012       -0.01050
H         -0.45148       31.80568        0.39637
H          2.09496       33.06561        1.43756
H          2.24895       30.63274        0.73679
H          1.59747       31.07779       -0.88368
H          3.20452       31.70548       -0.35695
N          0.20306       34.22733       -0.94132
C          0.07778       35.12530       -2.08501
C         -1.13379       36.04688       -1.97451
O         -0.99508       37.23051       -2.25093
C          0.13345       34.33565       -3.41907
C         -0.86595       33.22244       -3.63736
O         -1.75749       32.86021       -2.70141
O         -0.83597       32.60153       -4.68717
H         -0.65092       33.81125       -0.57052
H          0.96157       35.80207       -2.13040
H          1.14035       33.86984       -3.49450
H          0.03793       35.06286       -4.25496
N         -2.35614       35.57834       -1.60770
C         -3.55480       36.38310       -1.55612
C         -4.33887       36.16126       -2.81534
O         -4.66921       37.12130       -3.49560
H         -2.47881       34.59170       -1.38316
H         -3.33199       37.45930       -1.39353
H         -4.17374       36.04403       -0.69581
N         -4.69015       34.89525       -3.16836
C         -5.54626       34.57343       -4.29822
C         -6.87921       34.01154       -3.79716
O         -7.65715       33.52364       -4.60517
C         -4.83408       33.62411       -5.29657
C         -4.52275       32.23777       -4.80383
N         -4.16953       31.28221       -5.68882
O         -4.61272       31.95427       -3.62323
H         -4.38750       34.12081       -2.56133
H         -5.78406       35.48581       -4.88553
H         -3.89261       34.08106       -5.67471
H         -5.51678       33.50647       -6.16472
H         -4.10920       31.48088       -6.69724
H         -4.00284       30.32617       -5.36400
N         -7.23616       34.10377       -2.47687
C         -8.49919       33.62554       -1.93366
C         -8.59837       32.11300       -1.81767
O         -9.62744       31.63964       -1.35829
H         -6.62329       34.60081       -1.81701
H         -9.33534       34.03178       -2.54225
H         -8.60853       34.02578       -0.90217
N         -7.58351       31.29407       -2.21158
C         -7.61299       29.83850       -2.15878
C         -6.33174       29.30850       -1.45988
O         -5.23764       29.50424       -2.30558
C         -7.71845       29.28084       -3.61273
C         -9.15188       29.29300       -4.12474
O         -6.93615       30.04085       -4.49929
H         -6.74019       31.71424       -2.60672
H         -8.48111       29.47672       -1.56036
H         -7.41601       28.21066       -3.65824
H         -6.02548       29.66017       -4.49487
H         -9.57737       30.31631       -4.10424
H         -9.16267       28.91327       -5.16942
H         -9.77613       28.61424       -3.50441
N         -6.49172       27.88073       -1.10602
C         -5.27681       27.06888       -0.90409
C         -4.66859       26.55806       -2.21378
O         -5.35481       25.97017       -3.03631
C         -5.60228       25.94113        0.12595
C         -5.65308       26.60832        1.53060
C         -4.57538       24.78900        0.10751
C         -6.09940       25.69983        2.67033
H         -7.21789       27.35714       -1.64693
H         -4.50378       27.69086       -0.43238
H         -6.58579       25.48924       -0.13358
H         -6.35347       27.47050        1.50517
H         -4.63990       27.00111        1.77942
H         -3.55815       25.15494        0.34066
H         -4.84800       23.99569        0.83155
H         -4.56604       24.29321       -0.88637
H         -5.41265       24.84121        2.80578
H         -6.08809       26.28612        3.61446
H         -7.13095       25.33791        2.48518
N         -3.31453       26.66822       -2.37436
C         -2.52246       26.13153       -3.47939
C         -1.79745       24.87996       -3.01270
O         -1.97124       24.48952       -1.87668
C         -1.48063       27.19224       -3.89325
C         -2.13762       28.41398       -4.43548
O         -2.01355       29.59477       -3.79862
O         -2.77328       28.33988       -5.47313
H         -2.77602       27.08220       -1.60399
H         -3.16875       25.84373       -4.33686
H         -0.79268       26.81077       -4.67518
H         -0.86724       27.46390       -3.00492
N         -0.98848       24.17422       -3.85658
C         -0.28396       22.96153       -3.43990
C          0.75274       23.21985       -2.34648
O          0.65115       22.54551       -1.32717
C          0.32590       22.23140       -4.65678
C          1.06321       20.96137       -4.27200
C          0.43401       19.94620       -3.52276
C          2.40013       20.78184       -4.66863
C          1.13542       18.78858       -3.16922
C          3.09204       19.61637       -4.32430
C          2.46222       18.62283       -3.57164
H         -0.90108       24.48852       -4.83313
H         -1.04439       22.26119       -3.03028
H          1.00126       22.91223       -5.21357
H         -0.50628       21.95771       -5.34127
H         -0.59346       20.04673       -3.19997
H          2.90690       21.53993       -5.25193
H          0.64979       18.01822       -2.58340
H          4.11843       19.48407       -4.64085
H          3.00188       17.72398       -3.30162
N          1.77506       24.13148       -2.43028
C          2.76874       24.30453       -1.37671
C          2.16860       24.82569       -0.08207
O          2.79119       24.66482        0.95679
C          3.79959       25.25670       -1.99081
C          2.95299       26.07919       -2.94254
C          2.02300       25.02611       -3.54333
H          3.26168       23.33403       -1.14526
H          4.41576       25.83256       -1.26613
H          4.48222       24.65434       -2.63063
H          2.33925       26.77583       -2.32712
H          3.51587       26.67402       -3.69375
H          1.11964       25.54548       -3.91226
H          2.51544       24.45142       -4.35611
N          0.95881       25.44152       -0.06113
C          0.29068       25.82037        1.17503
C         -0.27646       24.57540        1.84342
O         -0.09103       24.39333        3.03770
C         -0.84422       26.79729        0.88036
C         -0.35988       28.09683        0.19593
C         -1.52509       29.00534       -0.03206
O         -2.61155       28.72714        0.43959
O         -1.43752       30.08885       -0.81303
H          0.48002       25.62831       -0.95383
H          0.98263       26.36565        1.85446
H         -1.34283       27.05543        1.84191
H         -1.58739       26.30621        0.21948
H          0.08321       27.85144       -0.79097
H          0.40832       28.62499        0.79724
N         -0.96782       23.66394        1.10086
C         -1.55809       22.44481        1.60793
H         -2.63493       22.42064        1.33324
H         -1.06107       21.57362        1.12865
H         -1.46516       22.35628        2.70800
H         -1.05718       23.82093        0.09634
Ca        -3.53904       30.64959       -1.33078
O         -4.63947       30.81679        1.53405
H         -4.97314       30.79347        2.46427
H         -4.61920       29.86944        1.25578
O         -5.74331       32.71207       -0.15206
H         -5.09958       33.41796       -0.40600
H         -6.43629       33.18634        0.37131

Ca 1.0



