%chk=holoCaM.loop1.water2.frame22.chk
%nprocshared=20
%mem=10GB
%nosave
#b3lyp/svp scf=(tight,noincore,xqc) Test 
#IOP(5/87=12) Density=Current Pop=(MK,readradii) iop(6/33=2) iop(6/42=6)

holoCaM.loop1.water2.frame22 

   0  1 
C         78.88203       12.14084        6.70060
C         79.45187       11.14317        5.73847
O         80.60018       11.28762        5.34463
H         77.83084       11.89495        6.96270
H         79.48653       12.16623        7.62941
H         78.89321       13.14266        6.22183
N         78.69005       10.10584        5.29791
C         79.14252        9.16437        4.28213
C         79.38276        9.91837        2.98229
O         78.43390       10.39701        2.37562
C         78.08708        8.05561        4.13271
C         78.18984        7.27566        2.86572
O         77.23435        7.30022        2.11466
O         79.29490        6.64071        2.45126
H         77.73672       10.00823        5.68163
H         80.09102        8.68896        4.61620
H         77.07802        8.52896        4.10463
H         78.11393        7.39102        5.02265
N         80.65649       10.12024        2.54225
C         80.96844       10.94215        1.38501
C         80.53797       10.26028        0.09038
O         79.78306       10.83137       -0.68298
C         82.49099       11.25237        1.30779
C         82.67215       12.50746        0.44848
C         84.11389       12.85767        0.08725
C         84.08078       14.17220       -0.71250
N         85.41786       14.66204       -1.02497
H         81.43008        9.76863        3.11796
H         80.44163       11.91277        1.53059
H         83.05447       10.38289        0.90241
H         82.91143       11.47809        2.31339
H         82.23862       13.35388        1.03067
H         82.10585       12.39826       -0.49887
H         84.55691       12.04669       -0.53465
H         84.72363       12.97876        1.00825
H         83.55072       14.95153       -0.11974
H         83.51205       14.01127       -1.65710
H         85.95066       13.94878       -1.57165
H         85.32397       15.53441       -1.59499
H         85.92203       14.89301       -0.13852
N         81.02975        9.02133       -0.19592
C         80.83616        8.29162       -1.45148
C         79.61207        7.37251       -1.46358
O         79.52483        6.52597       -2.34264
C         82.15933        7.60602       -1.89937
C         82.78759        6.65717       -0.90744
O         83.86409        6.14808       -1.16894
O         82.22851        6.42062        0.29001
H         81.64500        8.61440        0.51580
H         80.62308        9.02061       -2.26635
H         82.90640        8.40745       -2.08701
H         82.00237        7.06500       -2.85879
N         78.53056        7.63069       -0.67347
C         77.21473        7.03385       -0.89071
C         77.04047        5.55747       -0.56511
O         75.92439        5.08470       -0.72759
H         78.58481        8.39637        0.01264
H         76.91963        7.20844       -1.94729
H         76.48154        7.58459       -0.26299
N         78.04379        4.75970       -0.10192
C         77.83544        3.34140        0.23855
C         77.01675        3.11770        1.52445
O         76.80874        1.96937        1.89170
C         79.18624        2.58930        0.32029
C         80.21000        3.26851        1.17814
O         79.91459        3.62279        2.43695
O         81.30791        3.53761        0.71690
H         78.98431        5.16713       -0.01127
H         77.27854        2.84580       -0.58651
H         79.60897        2.49425       -0.70348
H         79.01203        1.55858        0.69802
N         76.51980        4.14844        2.25639
C         75.79752        4.00751        3.50932
C         76.67264        3.42833        4.59806
O         76.20375        2.59705        5.35821
H         76.65950        5.09972        1.92544
H         74.85919        3.42532        3.37919
H         75.50687        5.02958        3.84360
N         77.93568        3.90673        4.77105
C         78.82721        3.55876        5.88246
C         79.93509        4.59218        6.03234
O         80.16146        5.41552        5.15662
C         79.45152        2.12110        5.84328
C         78.55757        0.99644        6.35835
O         79.97032        1.79388        4.58512
H         78.22985        4.64165        4.11329
H         78.24370        3.68352        6.81925
H         80.30132        2.10932        6.56011
H         79.23257        1.87106        3.92902
H         79.15888        0.06364        6.43670
H         78.19786        1.25210        7.37837
H         77.70714        0.79254        5.68643
N         80.60063        4.64495        7.21903
C         81.53281        5.69296        7.59312
C         82.90435        5.09216        7.87912
O         83.03644        4.25047        8.75569
C         80.91641        6.49529        8.78018
C         79.68458        7.29674        8.25193
C         81.94373        7.42377        9.44453
C         79.01910        8.20974        9.28187
H         80.36863        3.94824        7.94302
H         81.65799        6.41845        6.77498
H         80.58911        5.78094        9.56830
H         78.91727        6.58243        7.88187
H         79.98899        7.94085        7.39573
H         82.80889        6.84029        9.81958
H         82.29184        8.20031        8.74145
H         81.50236        7.90889       10.33843
H         79.70646        9.02796        9.58303
H         78.12627        8.68956        8.82658
H         78.70622        7.63125       10.17448
N         83.97980        5.52277        7.15585
C         85.36201        5.09685        7.34522
C         86.04810        5.97698        8.38046
O         85.41155        6.85846        8.93325
C         86.13129        5.19068        5.99243
C         85.43199        4.40226        4.89497
O         86.24759        6.52905        5.58372
H         83.81762        6.21871        6.42466
H         85.38515        4.03773        7.68242
H         87.14606        4.75820        6.13226
H         86.93859        6.56223        4.87090
H         86.04875        4.42580        3.97600
H         85.29064        3.34770        5.20502
H         84.45233        4.87110        4.66650
N         87.36685        5.80169        8.67441
C         88.12311        6.67656        9.57095
C         88.19980        8.09525        9.01516
O         87.97378        9.03454        9.76448
C         89.53227        6.09720        9.85578
C         89.41033        4.78866       10.66048
O         90.23468        5.88092        8.65702
H         87.86411        5.02346        8.21818
H         87.61522        6.73160       10.55967
H         90.08614        6.83213       10.48307
H         91.11544        5.48994        8.89922
H         90.41544        4.42263       10.95607
H         88.82811        4.96580       11.59111
H         88.90326        3.99589       10.07198
N         88.48129        8.32325        7.70225
C         88.49235        9.65520        7.09288
C         87.12038       10.32604        7.23173
O         87.06014       11.49691        7.57843
C         88.95789        9.52776        5.61978
C         89.27686       10.86955        4.93340
C         89.99742       10.62069        3.59160
C         90.13442       11.87929        2.71739
N         88.88407       12.17896        2.01377
H         88.67142        7.50569        7.10197
H         89.25777       10.27750        7.60734
H         88.20536        8.96990        5.01818
H         89.89939        8.93468        5.62888
H         89.97131       11.46696        5.56905
H         88.33705       11.44055        4.80282
H         89.48631        9.83715        2.99202
H         91.01578       10.24134        3.83451
H         90.91178       11.68036        1.94700
H         90.47291       12.75223        3.32012
H         88.59110       11.34705        1.44881
H         88.12358       12.43283        2.68215
H         89.04245       12.97293        1.35216
N         85.97512        9.62192        6.99839
C         84.62089       10.17442        7.12146
C         84.19932       10.39097        8.57734
O         83.21986       11.08841        8.80388
C         83.61886        9.22439        6.42029
C         83.92554        9.15041        4.90544
C         83.18050        8.10909        4.12085
O         82.39116        7.20342        4.71342
O         83.31521        8.07427        2.90868
H         86.07667        8.64088        6.71341
H         84.58807       11.15310        6.59500
H         82.56728        9.56190        6.55662
H         83.71730        8.24486        6.91205
H         84.99871        8.93943        4.72814
H         83.68379       10.14513        4.47945
N         84.84812        9.78455        9.61000
C         84.46878        9.94462       10.99882
H         83.40678        9.65764       11.15241
H         85.09952        9.28608       11.63703
H         84.62610       10.99555       11.31770
H         85.62703        9.15686        9.41026
Ca        81.40397        5.95732        2.32159
O         82.64825        3.34607        3.90009
O         84.43677        5.34570        1.92951
H         81.99758        2.61908        3.78057
H         84.08298        5.03082        1.06425
H         83.50643        2.90581        3.68676
H         85.37979        5.05385        1.90650

Ca 1.0



