%chk=holoCaM-CaMKII.loop4.water2.frame184.chk
%nprocshared=20
%mem=10GB
%nosave
#b3lyp/svp scf=(tight,noincore,xqc) Test 
#IOP(5/87=12) Density=Current Pop=(MK,readradii) iop(6/33=2) iop(6/42=6)

holoCaM-CaMKII.loop4.water2.frame184 

   -3  1 
C         -7.56278       39.61036       13.02343
C         -7.62165       38.53100       14.05964
O         -6.60035       37.94473       14.37418
H         -7.88220       40.57033       13.48067
H         -6.53097       39.72456       12.62930
H         -8.24493       39.36142       12.18340
N         -8.81413       38.19856       14.61545
C         -8.98412       37.18511       15.64534
C         -9.61506       35.95972       15.01368
O        -10.63683       36.08187       14.35242
C         -9.80263       37.79717       16.79255
C        -10.14981       36.80538       17.85363
O         -9.28047       36.17942       18.43581
O        -11.44004       36.62183       18.17621
H         -9.66135       38.67488       14.26706
H         -8.00436       36.87917       16.06838
H        -10.74838       38.22758       16.39817
H         -9.21116       38.61881       17.25287
N         -9.01429       34.73952       15.15312
C         -9.41202       33.54677       14.41667
C        -10.06790       32.55385       15.36097
O        -11.23934       32.25548       15.17114
C         -8.16417       32.94819       13.69214
C         -7.39052       33.99675       12.84505
C         -8.53227       31.71545       12.85021
C         -8.19951       34.65617       11.72730
H         -8.20262       34.65592       15.78125
H        -10.17061       33.81448       13.64829
H         -7.43893       32.60584       14.46305
H         -6.49801       33.50795       12.39584
H         -7.01219       34.80155       13.51254
H         -9.26456       31.97247       12.05822
H         -7.62029       31.29226       12.37648
H         -8.97316       30.92381       13.49143
H         -8.56021       33.90474       10.99707
H         -9.06138       35.21720       12.14093
H         -7.55079       35.37924       11.18899
N         -9.38592       32.00787       16.40980
C        -10.00787       31.08888       17.36810
C        -11.10703       31.76184       18.21683
O        -11.77508       31.05077       18.95434
C         -8.93246       30.35776       18.21525
C         -8.01857       31.31020       18.91388
O         -8.53539       32.18025       19.78415
O         -6.82845       31.33585       18.64989
H         -8.38905       32.24200       16.51281
H        -10.50868       30.28054       16.78950
H         -8.32043       29.72909       17.53071
H         -9.41532       29.68222       18.95368
N        -11.41902       33.09023       18.09777
C        -12.62894       33.68486       18.65135
C        -12.63487       33.90399       20.14817
O        -13.53776       33.38988       20.79324
H        -10.86989       33.69322       17.47228
H        -13.50275       33.06794       18.34288
H        -12.78897       34.67235       18.18291
N        -11.70405       34.69592       20.76833
C        -11.76346       35.00395       22.20428
C        -11.65840       36.48833       22.56094
O        -11.87596       36.79745       23.72499
C        -10.74230       34.15127       22.96942
C         -9.30345       34.32132       22.58083
O         -8.87112       35.27692       21.73970
O         -8.49784       33.49764       22.98288
H        -10.91858       35.05052       20.20763
H        -12.75610       34.68970       22.59523
H        -11.00717       33.09347       22.74923
H        -10.83958       34.30199       24.06528
N        -11.33515       37.46058       21.65893
C        -11.30292       38.88178       21.99022
C         -9.91306       39.48763       21.91122
O         -9.81577       40.70356       21.97080
H        -11.10735       37.20671       20.68955
H        -11.70169       39.09227       23.00593
H        -11.96613       39.40330       21.26555
N         -8.79371       38.71351       21.80581
C         -7.44167       39.24920       21.65748
C         -6.82435       38.75213       20.37045
O         -7.41728       37.93998       19.67769
C         -6.54035       38.82875       22.84233
C         -6.76377       39.69596       24.08432
C         -5.72114       39.39535       25.13400
N         -5.66889       38.18812       25.74139
O         -4.90547       40.25573       25.43275
H         -8.89297       37.69308       21.81387
H         -7.45377       40.35756       21.57664
H         -5.47648       38.98888       22.56622
H         -6.66353       37.74521       23.06096
H         -7.78543       39.56343       24.49611
H         -6.64222       40.75941       23.77762
H         -6.35154       37.45213       25.51249
H         -4.94563       37.99338       26.45026
N         -5.60716       39.24260       19.98678
C         -4.93110       38.82503       18.77281
C         -3.56789       38.26295       19.14865
O         -2.72749       39.00374       19.63787
C         -4.79730       40.02514       17.79487
C         -4.23505       39.56430       16.44377
C         -6.14903       40.72365       17.56685
H         -5.14829       39.95933       20.56760
H         -5.53005       38.04238       18.26225
H         -4.10830       40.78070       18.23366
H         -4.12820       40.42757       15.75377
H         -3.24030       39.09748       16.56769
H         -4.91391       38.82100       15.98144
H         -6.02198       41.58301       16.87411
H         -6.89545       40.02093       17.13993
H         -6.54422       41.13146       18.52190
N         -3.28954       36.94354       18.95627
C         -1.98505       36.33807       19.23717
C         -0.92753       36.89983       18.28475
O         -1.27462       37.66969       17.40748
C         -2.14548       34.80020       19.08338
C         -0.92181       33.96290       19.34659
N         -0.29691       33.99237       20.54493
O         -0.50251       33.22574       18.46780
H         -4.04648       36.34348       18.60170
H         -1.70124       36.56633       20.28737
H         -2.50624       34.58475       18.05631
H         -2.93066       34.46495       19.79319
H         -0.63790       34.59832       21.30390
H          0.53631       33.40774       20.70933
N          0.38905       36.56786       18.39416
C          1.39669       36.95769       17.40566
C          1.08002       36.30558       16.06813
O          0.97459       36.99741       15.06608
C          2.80039       36.51155       17.88065
C          3.86531       36.70281       16.82078
C          4.15164       37.97422       16.29455
C          4.57275       35.58755       16.33741
C          5.12445       38.12267       15.29893
C          5.54480       35.73885       15.34650
C          5.82326       37.00782       14.82185
O          6.75627       37.16616       13.86131
H          0.68474       35.99083       19.19298
H          1.41138       38.06470       17.28918
H          2.75868       35.43579       18.15986
H          3.07465       37.07939       18.79564
H          3.61934       38.84812       16.64718
H          4.36989       34.59616       16.72342
H          5.33395       39.10523       14.89528
H          6.07771       34.86784       14.98591
H          7.25908       36.41932       13.50518
N          0.92475       34.95619       16.00236
C          0.64644       34.20284       14.78342
C         -0.59247       34.73877       14.08389
O         -0.52326       35.03461       12.89919
C          0.51627       32.70862       15.15513
C          0.37616       31.78018       13.94529
C          0.42331       30.34381       14.38877
O         -0.52100       29.60032       14.17847
O          1.51811       29.86732       15.01473
H          1.00872       34.43442       16.88622
H          1.51535       34.30222       14.09494
H         -0.34396       32.55538       15.84409
H          1.44830       32.42499       15.69439
H          1.21755       31.95085       13.24054
H         -0.58073       31.99049       13.42026
N         -1.73925       34.95856       14.78197
C         -2.94304       35.55590       14.20300
C         -2.63926       36.90216       13.55796
O         -3.01109       37.10338       12.41059
C         -4.02872       35.72916       15.28490
C         -4.55754       34.37503       15.78421
C         -5.63844       34.51910       16.81613
O         -6.15403       33.51899       17.27849
O         -6.05970       35.72679       17.23397
H         -1.72959       34.73584       15.78818
H         -3.35828       34.88881       13.41484
H         -4.88573       36.27098       14.84145
H         -3.62989       36.33311       16.13015
H         -3.73803       33.77308       16.22462
H         -4.97635       33.81346       14.92141
N         -1.94001       37.85489       14.22912
C         -1.60117       39.15540       13.68831
H         -0.49645       39.24725       13.61766
H         -2.03720       39.32271       12.68222
H         -1.97600       39.94619       14.37103
H         -1.59742       37.63496       15.16385
Ca        -7.81425       34.27299       20.07215
O         -5.07491       33.03414       20.47270
H         -5.08252       32.61708       21.37045
H         -4.64492       32.36179       19.88742
O         -5.56249       35.58804       21.95795
H         -4.65908       35.41162       22.32185
H         -6.15874       34.99748       22.48319

Ca 1.0



