%chk=holoCaM-CaMKII.loop2.water2.frame331.chk
%nprocshared=20
%mem=10GB
%nosave
#b3lyp/svp scf=(tight,noincore,xqc) Test 
#IOP(5/87=12) Density=Current Pop=(MK,readradii) iop(6/33=2) iop(6/42=6)

holoCaM-CaMKII.loop2.water2.frame331 

   -2  1 
C         41.52920       70.02472       52.68037
C         41.56575       70.80943       51.40021
O         41.64370       70.21884       50.33461
H         40.57027       70.22435       53.20573
H         41.60143       68.93387       52.48347
H         42.36982       70.33009       53.33759
N         41.49654       72.16685       51.44084
C         41.42968       73.01557       50.25544
C         42.64376       72.87905       49.34584
O         43.76951       72.96438       49.81531
C         41.26764       74.48891       50.66627
C         41.11827       75.35873       49.45091
O         40.22443       75.13727       48.65058
O         41.99211       76.35550       49.21812
H         41.44089       72.61400       52.36986
H         40.51280       72.73924       49.68996
H         42.14441       74.82091       51.26322
H         40.35793       74.59774       51.29444
N         42.45202       72.75133       47.99944
C         43.51181       72.65999       47.00608
C         43.47056       73.78547       45.96822
O         44.42081       73.87246       45.20250
C         43.36721       71.32421       46.26840
H         41.49083       72.72822       47.65865
H         44.50107       72.69554       47.51071
H         43.40944       70.47923       46.98648
H         42.38562       71.28693       45.74252
H         44.17270       71.19629       45.51504
N         42.40186       74.63002       45.82121
C         42.31767       75.64048       44.76540
C         42.05802       77.04111       45.31425
O         42.78139       77.94837       44.92597
C         41.32867       75.22394       43.64332
C         39.89000       74.93745       43.98912
O         39.43717       74.96354       45.25104
O         39.11769       74.63577       43.09331
H         41.58390       74.51440       46.42837
H         43.28473       75.70545       44.21629
H         41.72627       74.29756       43.17221
H         41.34366       76.02183       42.86761
N         41.06074       77.30363       46.20943
C         40.75645       78.63396       46.71773
C         39.33009       79.06684       46.41567
O         38.97846       80.17251       46.80223
H         40.49744       76.53371       46.57952
H         41.43848       79.39651       46.28379
H         40.90645       78.63565       47.81854
N         38.45707       78.28135       45.71313
C         37.11306       78.71255       45.32559
C         36.10675       78.85615       46.47921
O         34.96003       79.17913       46.20053
C         36.55077       77.80336       44.20659
C         36.22177       76.37900       44.56572
N         35.63262       75.59970       43.62962
O         36.46119       75.92843       45.67561
H         38.78477       77.37774       45.35292
H         37.21215       79.70879       44.84105
H         37.27310       77.78327       43.36076
H         35.61296       78.26787       43.83538
H         35.42406       75.97297       42.69324
H         35.35922       74.63319       43.82728
N         36.45298       78.68806       47.78738
C         35.54116       78.92905       48.89890
C         34.61429       77.77458       49.23750
O         33.88200       77.91360       50.20711
H         37.43083       78.50417       48.02487
H         34.96816       79.86669       48.72494
H         36.15414       79.09280       49.81127
N         34.59123       76.60837       48.52986
C         33.75746       75.45922       48.89487
C         34.60694       74.20913       49.09188
O         35.79742       74.23760       48.81380
C         32.69035       75.21435       47.79429
C         31.65844       76.34210       47.76207
O         33.29052       75.11243       46.52773
H         35.18743       76.51980       47.69823
H         33.23381       75.63771       49.85937
H         32.10910       74.28870       48.00924
H         33.70535       74.21384       46.47451
H         31.13742       76.40563       48.74197
H         32.13802       77.31817       47.54130
H         30.89818       76.13257       46.97931
N         34.02408       73.04809       49.51932
C         34.71308       71.76203       49.55800
C         34.25516       70.98907       48.34120
O         33.05871       70.83548       48.13367
C         34.44440       70.95566       50.86870
C         34.95083       71.73338       52.11061
C         35.12827       69.56768       50.77649
C         34.74350       70.98909       53.43715
H         33.01016       73.04846       49.70923
H         35.81339       71.90685       49.48781
H         33.34895       70.78886       50.97324
H         34.40309       72.69755       52.17391
H         36.03526       71.95318       52.00506
H         36.23058       69.67663       50.68759
H         34.89451       68.93472       51.65478
H         34.75838       68.99433       49.90228
H         35.07471       71.62998       54.28058
H         33.67316       70.73137       53.58078
H         35.35331       70.06275       53.48334
N         35.17965       70.46196       47.49699
C         34.85948       69.75422       46.26749
C         35.18639       68.28641       46.42247
O         35.60149       67.88706       47.49760
C         35.59610       70.45412       45.11884
C         35.05393       71.85861       44.99337
O         35.81565       72.92341       45.30003
O         33.89070       72.03357       44.66844
H         36.17556       70.55180       47.73864
H         33.76687       69.78660       46.06241
H         35.46127       69.92808       44.15244
H         36.68317       70.45961       45.35165
N         34.88747       67.39541       45.43793
C         34.86680       65.95769       45.68682
C         36.23607       65.36596       46.02845
O         36.32102       64.76299       47.08841
C         34.12299       65.20586       44.55826
C         33.76153       63.79255       44.95293
C         32.90954       63.56123       46.05116
C         34.24364       62.69571       44.22039
C         32.55583       62.26037       46.41214
C         33.88324       61.39340       44.58449
C         33.04153       61.17643       45.67944
H         34.51340       67.75379       44.54549
H         34.22237       65.82677       46.58339
H         34.69702       65.21664       43.61740
H         33.16508       65.73108       44.35071
H         32.50943       64.38542       46.62786
H         34.89349       62.84664       43.36769
H         31.90054       62.09526       47.25798
H         34.25401       60.55106       44.01597
H         32.76169       60.16931       45.95900
N         37.35399       65.48235       45.23766
C         38.66719       64.94691       45.60289
C         39.09449       65.32891       47.00907
O         39.55994       64.47790       47.75366
C         39.61604       65.59150       44.58214
C         38.73139       65.69650       43.36644
C         37.42593       66.19748       43.97821
H         38.65658       63.84077       45.47714
H         39.85328       66.63859       44.88037
H         40.57192       65.04316       44.43635
H         39.12721       66.32217       42.53886
H         38.56659       64.66174       42.98433
H         37.44975       67.28958       44.18960
H         36.62274       65.96098       43.26335
N         38.91220       66.60635       47.44008
C         39.26523       67.09222       48.77180
C         38.55804       66.27949       49.84024
O         39.22034       65.75065       50.72157
C         38.88277       68.58098       48.91425
C         39.64605       69.46911       47.91388
C         39.17361       70.88438       47.92390
O         39.60186       71.69818       46.95146
O         38.30193       71.26601       48.68808
H         38.45873       67.25474       46.78037
H         40.36490       67.00940       48.92164
H         39.10504       68.93483       49.94485
H         37.78926       68.68899       48.74011
H         39.46444       69.12057       46.87903
H         40.73862       69.42976       48.09346
N         37.20859       66.11836       49.80735
C         36.48490       65.34555       50.78920
H         35.40542       65.32213       50.52402
H         36.86607       64.30288       50.80814
H         36.59641       65.80965       51.79076
H         36.67318       66.53910       49.04429
Ca        37.94145       72.61414       45.83000
O         38.13417       76.64152       49.42787
H         37.62652       76.93014       50.22533
H         38.89406       77.27528       49.37335
O         37.95876       73.92688       50.44467
H         37.58504       74.39373       51.23343
H         38.02082       72.97936       50.71995

Ca 1.0



