%chk=holoCaM.loop2.water2.frame481.chk
%nprocshared=20
%mem=10GB
%nosave
#b3lyp/svp scf=(tight,noincore,xqc) Test 
#IOP(5/87=12) Density=Current Pop=(MK,readradii) iop(6/33=2) iop(6/42=6)

holoCaM.loop2.water2.frame481 

   -2  1 
C         79.08209       69.47684       59.17691
C         77.72118       68.84850       59.31178
O         77.33300       68.48404       60.41154
H         79.85858       68.77456       59.54334
H         79.31311       69.72034       58.11642
H         79.12625       70.41804       59.76313
N         76.92846       68.71697       58.21650
C         75.59448       68.12373       58.22843
C         75.68962       66.62153       58.45641
O         76.40751       65.95334       57.72598
C         74.90928       68.49144       56.89779
C         73.52259       67.96233       56.65376
O         73.30712       67.41827       55.58656
O         72.48912       68.14160       57.50668
H         77.28920       69.08953       57.32355
H         74.99396       68.60198       59.02762
H         75.55446       68.16070       56.05212
H         74.84638       69.60042       56.86060
N         74.96939       66.02683       59.45190
C         75.01961       64.59891       59.76209
C         73.71838       63.88357       59.41816
O         73.68038       62.66807       59.55204
C         75.33777       64.40519       61.25440
H         74.33616       66.61827       59.99763
H         75.82247       64.11290       59.16890
H         76.28300       64.92082       61.52521
H         74.52094       64.81138       61.88634
H         75.44006       63.32737       61.50247
N         72.60998       64.55673       58.99096
C         71.34125       63.91008       58.66438
C         70.83860       64.28861       57.26851
O         69.74599       63.87013       56.91163
C         70.32793       64.21708       59.78358
C         70.15074       65.67834       60.05256
O         69.65958       66.40470       59.21177
O         70.53520       66.19189       61.23449
H         72.63147       65.58449       58.93720
H         71.44447       62.80258       58.66279
H         70.71646       63.74950       60.71453
H         69.34346       63.75157       59.56101
N         71.60343       65.00673       56.39420
C         71.20905       65.27779       55.01817
C         70.13150       66.33193       54.83508
O         69.80639       66.59076       53.68414
H         72.55646       65.28023       56.66600
H         70.90215       64.32754       54.53123
H         72.09623       65.64072       54.45893
N         69.52863       66.99339       55.87020
C         68.47308       67.98180       55.63295
C         69.00042       69.29316       55.04110
O         68.19351       70.15581       54.72379
C         67.62252       68.23090       56.89745
C         68.23400       69.16360       57.91128
N         67.56129       70.27576       58.28999
O         69.32313       68.91795       58.40351
H         69.77609       66.74621       56.83344
H         67.76284       67.51386       54.91395
H         67.38311       67.25524       57.37342
H         66.65562       68.67304       56.57145
H         66.63990       70.50700       57.89080
H         67.94732       70.90246       59.00314
N         70.33627       69.50858       54.85183
C         70.87613       70.68616       54.19522
C         71.13020       71.86810       55.10700
O         71.67122       72.84254       54.60081
H         71.01145       68.76898       55.08037
H         70.24594       70.96684       53.32370
H         71.87390       70.40996       53.78854
N         70.82228       71.87527       56.43912
C         71.18185       72.98902       57.32357
C         72.08767       72.49057       58.44141
O         72.35594       71.29673       58.49834
C         69.92132       73.67834       57.90189
C         68.92224       74.06746       56.80785
O         69.29370       72.83760       58.82776
H         70.34206       71.06247       56.85413
H         71.74282       73.76519       56.75824
H         70.25688       74.60724       58.42000
H         68.77558       73.41903       59.44488
H         69.40217       74.73186       56.05978
H         68.53356       73.16061       56.29591
H         68.06019       74.60187       57.26061
N         72.58646       73.34615       59.37887
C         73.40308       72.90979       60.50811
C         72.65673       73.26106       61.78957
O         72.32544       74.42490       61.97924
C         74.81709       73.57084       60.48120
C         75.48612       73.43277       59.08745
C         75.70346       72.93039       61.57255
C         76.83914       74.14734       58.98746
H         72.36751       74.35213       59.30320
H         73.56314       71.80886       60.46396
H         74.70392       74.65793       60.69011
H         74.82751       73.90407       58.32707
H         75.61530       72.36125       58.82019
H         75.85684       71.84865       61.36083
H         76.69422       73.41935       61.64270
H         75.23710       73.03096       62.56889
H         77.21871       74.08141       57.94643
H         76.72997       75.22041       59.25517
H         77.59955       73.68084       59.64545
N         72.38451       72.31021       62.72812
C         71.73079       72.59280       64.00580
C         72.81966       72.82999       65.04613
O         73.97541       72.65672       64.70399
C         70.80057       71.40260       64.34601
C         69.77039       71.60977       65.42487
O         69.57020       72.70358       65.92341
O         68.98815       70.57443       65.78328
H         72.76727       71.36978       62.58558
H         71.13080       73.52353       63.90179
H         71.43758       70.52702       64.60008
H         70.21450       71.14263       63.44199
N         72.57100       73.31242       66.29493
C         73.65354       73.71177       67.18812
C         74.52403       72.54889       67.65724
O         75.73402       72.69661       67.56406
C         73.14056       74.59334       68.34598
C         74.26777       75.31957       69.05539
C         75.14137       76.16288       68.33442
C         74.44658       75.18710       70.44202
C         76.17560       76.83845       68.98307
C         75.47782       75.87864       71.08983
C         76.34332       76.69896       70.36037
H         71.60932       73.52530       66.57683
H         74.29836       74.38245       66.58398
H         72.52725       73.99538       69.05121
H         72.48510       75.38089       67.91457
H         75.03262       76.30595       67.26772
H         73.78429       74.55906       71.02361
H         76.84335       77.47456       68.41525
H         75.60638       75.78091       72.15935
H         77.14171       77.23107       70.86100
N         74.02853       71.35839       68.13371
C         74.86822       70.21237       68.48131
C         75.89567       69.91560       67.40806
O         77.06641       69.72812       67.70685
C         73.86741       69.04591       68.56411
C         72.62779       69.73831       69.07339
C         72.62319       71.01944       68.24108
H         75.34905       70.39081       69.46860
H         73.60955       68.67773       67.54376
H         74.21969       68.17615       69.15992
H         71.69247       69.14131       69.01106
H         72.81396       70.00818       70.13719
H         72.22497       70.83428       67.21859
H         72.01676       71.78379       68.76440
N         75.49167       69.89802       66.11171
C         76.35161       69.61642       64.97437
C         77.46312       70.65194       64.87674
O         78.62400       70.27186       64.82918
C         75.50624       69.53794       63.67845
C         74.37595       68.48874       63.82262
C         73.68073       68.21315       62.53376
O         73.14015       69.20029       61.80280
O         73.59542       67.06644       62.14053
H         74.50173       70.11402       65.93490
H         76.80812       68.60955       65.10471
H         76.18174       69.24665       62.84508
H         75.05489       70.52348       63.43285
H         73.60220       68.82724       64.53773
H         74.80196       67.53228       64.19971
N         77.17531       71.98298       64.90079
C         78.16575       73.03897       64.87529
H         79.19893       72.64955       64.77460
H         77.95371       73.72171       64.02608
H         78.09834       73.62271       65.81924
H         76.20140       72.27508       64.98554
Ca        72.57353       68.68657       59.69176
O         69.93051       68.38071       62.99915
H         69.23370       67.68141       62.92369
H         70.37436       68.19794       63.86459
O         69.68798       70.50452       60.94264
H         70.03366       71.43055       60.99285
H         68.76380       70.56512       61.29428

Ca 1.0



