%chk=holoCaM-CaMKII.loop4.water1.frame441.chk
%nprocshared=20
%mem=10GB
%nosave
#b3lyp/svp scf=(tight,noincore,xqc) Test 
#IOP(5/87=12) Density=Current Pop=(MK,readradii) iop(6/33=2) iop(6/42=6)

holoCaM-CaMKII.loop4.water1.frame441 

   -3  1 
C         60.39917       76.60159       21.46724
C         59.05334       77.11263       21.86627
O         58.08213       76.82481       21.18476
H         61.16503       76.85093       22.23185
H         60.36870       75.50202       21.33072
H         60.68277       77.09186       20.51294
N         58.92652       77.91979       22.95023
C         57.66949       78.53708       23.32961
C         57.18522       79.45841       22.20532
O         57.94454       80.30745       21.76036
C         57.86753       79.31967       24.64049
C         56.59221       79.91028       25.13017
O         56.63800       80.98039       25.70126
O         55.45683       79.56386       24.51979
H         59.76912       78.13568       23.50576
H         56.92053       77.73516       23.53181
H         58.61712       80.12610       24.49089
H         58.23695       78.63242       25.43225
N         55.91641       79.33960       21.71687
C         55.38471       80.08425       20.57835
C         54.35226       81.15454       20.98886
O         54.12218       82.05127       20.18907
C         54.73501       79.07175       19.57409
C         55.64140       77.88594       19.14100
C         54.15280       79.75264       18.31967
C         56.95910       78.26691       18.46206
H         55.30687       78.65934       22.16762
H         56.22017       80.62748       20.08435
H         53.86963       78.60030       20.09237
H         55.04660       77.27269       18.42904
H         55.86813       77.21713       19.99739
H         53.33442       80.44959       18.58265
H         54.93201       80.30423       17.75785
H         53.69362       78.99224       17.65202
H         57.71698       78.55762       19.21752
H         57.34351       77.38431       17.90549
H         56.83402       79.09408       17.73830
N         53.66722       81.12142       22.17293
C         52.62961       82.09905       22.54162
C         52.98451       82.92562       23.78666
O         52.18412       83.76467       24.17725
C         51.21464       81.45008       22.59404
C         50.99296       80.26425       23.49156
O         49.87784       79.78098       23.58697
O         52.00350       79.67044       24.12325
H         53.86668       80.35967       22.82628
H         52.53023       82.86802       21.74435
H         50.95185       81.11289       21.56760
H         50.48407       82.23628       22.88257
N         54.21625       82.85169       24.36547
C         54.70948       83.78955       25.36892
C         54.15269       83.58816       26.75763
O         53.75261       84.55429       27.39171
H         54.90331       82.18479       23.99136
H         54.57553       84.83835       25.02107
H         55.80286       83.62232       25.46538
N         54.16720       82.34787       27.31161
C         53.80424       82.04217       28.69453
C         54.93209       81.27670       29.41368
O         54.74657       80.90641       30.56422
C         52.46287       81.27011       28.70239
C         52.49124       79.95511       27.99092
O         51.36165       79.24444       27.82645
O         53.53485       79.51510       27.56576
H         54.44812       81.57028       26.70146
H         53.61967       82.97943       29.26501
H         51.70582       81.90820       28.19937
H         52.12989       81.08509       29.74508
N         56.13886       81.03895       28.81119
C         57.26664       80.37440       29.44547
C         57.23922       78.85910       29.38089
O         58.14660       78.26231       29.94279
H         56.32586       81.45299       27.89918
H         57.35867       80.72488       30.49474
H         58.19670       80.67670       28.91566
N         56.26300       78.16019       28.73183
C         56.20943       76.70200       28.71022
C         56.07080       76.13151       27.31090
O         55.79662       76.85167       26.36131
C         55.14204       76.19707       29.72089
C         53.73111       76.83062       29.68326
C         52.82209       76.36151       28.57321
N         51.62949       75.78480       28.86644
O         53.13555       76.53157       27.40701
H         55.51372       78.67275       28.26987
H         57.17806       76.29475       29.07209
H         55.54892       76.48882       30.71353
H         55.06922       75.08822       29.71518
H         53.81231       77.93583       29.66950
H         53.24130       76.57310       30.64770
H         51.32666       75.65187       29.84347
H         50.99068       75.48474       28.11532
N         56.31218       74.80344       27.13084
C         56.18812       74.09153       25.86963
C         55.16538       73.00432       26.09618
O         55.45968       72.05127       26.80741
C         57.58731       73.52957       25.44594
C         57.53290       72.42401       24.37319
C         58.48482       74.66808       24.93056
H         56.59723       74.24735       27.95262
H         55.81567       74.75809       25.06267
H         58.06072       73.07456       26.34521
H         58.56156       72.06265       24.14940
H         56.96282       71.54337       24.73500
H         57.07192       72.79223       23.43539
H         58.52420       75.51159       25.64930
H         59.52106       74.29997       24.76786
H         58.09726       75.05015       23.95968
N         53.93180       73.08261       25.51552
C         52.99818       71.97538       25.54607
C         53.34846       71.04666       24.39397
O         54.26730       71.36241       23.65203
C         51.52009       72.45688       25.61287
C         50.82798       72.84375       24.32200
N         50.89341       74.09471       23.81583
O         50.09141       72.02947       23.78732
H         53.70996       73.87436       24.90906
H         53.15440       71.42104       26.49891
H         51.39935       73.26589       26.36777
H         50.93466       71.60139       26.00954
H         51.43804       74.82645       24.28441
H         50.34789       74.34186       22.97415
N         52.70417       69.86921       24.19129
C         53.09073       68.94898       23.11873
C         52.95232       69.57609       21.73510
O         53.70919       69.22273       20.84095
C         52.22366       67.68534       23.17462
C         52.68461       66.65891       22.17242
C         53.93095       66.03036       22.32985
C         51.88002       66.32934       21.07102
C         54.36146       65.07828       21.40356
C         52.31663       65.38320       20.14027
C         53.55809       64.75094       20.30653
O         53.98798       63.83012       19.42134
H         51.94261       69.61079       24.83618
H         54.15721       68.66896       23.28059
H         51.17134       67.98926       22.97889
H         52.26516       67.23193       24.18793
H         54.56514       66.27229       23.17404
H         50.92176       66.81306       20.92634
H         55.32046       64.59482       21.54024
H         51.68920       65.14308       19.29164
H         53.46104       63.57242       18.65179
N         51.97899       70.49085       21.48691
C         51.78933       71.15964       20.20533
C         53.05701       71.91756       19.84811
O         53.58883       71.74459       18.76074
C         50.54067       72.07635       20.30148
C         50.09105       72.65142       18.95045
C         48.71409       73.25115       19.06083
O         47.74168       72.52381       19.19957
O         48.53962       74.58359       18.98803
H         51.34823       70.72961       22.25868
H         51.57163       70.39538       19.42823
H         50.70545       72.90819       21.02432
H         49.71039       71.44935       20.69343
H         50.03910       71.85081       18.18122
H         50.82434       73.41581       18.61915
N         53.61734       72.74162       20.77228
C         54.85392       73.49661       20.57372
C         56.07944       72.58767       20.50184
O         57.10017       73.01641       19.98155
C         54.99142       74.53450       21.71354
C         53.77390       75.48765       21.66451
C         53.67860       76.44866       22.79878
O         53.35747       77.59996       22.57561
O         53.74264       76.02233       24.06830
H         53.12647       72.82496       21.67438
H         54.77648       74.05416       19.61307
H         55.93701       75.11117       21.62329
H         55.01231       73.98969       22.68509
H         52.82923       74.91897       21.71188
H         53.77339       76.04043       20.70118
N         56.05839       71.32646       21.01551
C         57.18094       70.41651       20.94891
H         58.06415       70.85001       21.46246
H         56.91536       69.45994       21.45217
H         57.42711       70.19540       19.88936
H         55.21758       70.99281       21.48871
Ca        53.59493       78.61769       25.21264
O         50.76379       77.13169       25.19037
H         50.83280       77.39958       24.24043
H         49.93856       76.58701       25.22622

Ca 1.0



