%chk=holoCaM.loop2.water2.frame359.chk
%nprocshared=20
%mem=10GB
%nosave
#b3lyp/svp scf=(tight,noincore,xqc) Test 
#IOP(5/87=12) Density=Current Pop=(MK,readradii) iop(6/33=2) iop(6/42=6)

holoCaM.loop2.water2.frame359 

   -2  1 
C         97.45093       92.94021       88.38543
C         97.61661       91.63203       89.10720
O         97.64891       90.58667       88.47732
H         96.54694       93.46639       88.75776
H         98.33898       93.58078       88.58251
H         97.36215       92.79068       87.28949
N         97.76138       91.63868       90.45622
C         98.04366       90.45994       91.26785
C         96.92518       89.42007       91.27888
O         95.79203       89.75987       91.58809
C         98.31228       90.91482       92.71261
C         98.62465       89.74845       93.58697
O         99.53385       88.99419       93.28563
O         97.87163       89.50562       94.67640
H         97.73482       92.55903       90.92481
H         98.98227       89.99260       90.89346
H         97.42862       91.45179       93.12085
H         99.17857       91.60944       92.72208
N         97.22538       88.10149       91.06176
C         96.27193       87.00053       91.19457
C         96.69254       85.94107       92.23330
O         95.92265       85.01102       92.43146
C         96.14208       86.31063       89.83121
H         98.19062       87.86203       90.80553
H         95.27540       87.39286       91.49069
H         97.12249       85.88042       89.52586
H         95.39532       85.48908       89.87236
H         95.82127       87.03964       89.05827
N         97.90803       85.95898       92.86587
C         98.42104       84.84143       93.68072
C         99.04690       85.24325       95.02597
O         99.44302       84.34956       95.76216
C         99.44594       84.04077       92.83747
C        100.62916       84.85071       92.36206
O        100.75317       86.14362       92.71403
O        101.45205       84.34523       91.61632
H         98.54206       86.72856       92.64460
H         97.59156       84.13886       93.91739
H         98.91500       83.66022       91.93737
H         99.80859       83.16007       93.41140
N         99.17209       86.54032       95.42336
C         99.71976       86.95659       96.71151
C        101.20896       86.69826       96.93818
O        101.66104       86.99602       98.03502
H         98.79889       87.27182       94.81913
H         99.14235       86.44861       97.51519
H         99.55930       88.05003       96.82963
N        102.03148       86.13472       96.00397
C        103.41578       85.74838       96.30811
C        104.39525       86.90265       96.58057
O        105.44569       86.62765       97.14346
C        103.98719       84.81469       95.21512
C        104.10749       85.44516       93.85111
N        104.65350       84.75096       92.83049
O        103.71486       86.58101       93.65723
H        101.63535       85.87250       95.09331
H        103.36998       85.13805       97.23794
H        103.33428       83.92006       95.12207
H        104.99640       84.47395       95.53078
H        104.99000       83.78804       92.96584
H        104.75191       85.18479       91.90456
N        104.16369       88.18555       96.17645
C        105.06591       89.30665       96.44733
C        105.68649       89.92475       95.19869
O        106.34252       90.94880       95.33050
H        103.30996       88.38413       95.65063
H        105.90445       89.00879       97.11451
H        104.48171       90.08565       96.98082
N        105.59764       89.32702       93.97730
C        106.25564       89.80229       92.75839
C        105.26907       89.85188       91.59015
O        104.10023       89.55593       91.77888
C        107.44094       88.84596       92.43947
C        108.55463       88.98773       93.48173
O        107.01562       87.50671       92.40643
H        105.11262       88.42882       93.91446
H        106.66931       90.82740       92.88768
H        107.92172       89.10735       91.47205
H        106.48392       87.38928       91.57752
H        108.19398       88.72860       94.49849
H        109.40052       88.31536       93.22521
H        108.93526       90.03275       93.48970
N        105.69683       90.17450       90.33402
C        104.86574       90.13244       89.13153
C        105.27207       88.92369       88.30018
O        106.45086       88.71263       88.04780
C        104.94428       91.48896       88.35531
C        104.04661       92.52377       89.08998
C        104.50476       91.33958       86.88128
C        104.03394       93.92468       88.47462
H        106.69355       90.39952       90.19644
H        103.79739       89.96786       89.38778
H        106.00162       91.83490       88.33009
H        104.38300       92.61658       90.14435
H        102.99606       92.15332       89.09476
H        104.61084       92.29349       86.32753
H        105.16294       90.62221       86.34701
H        103.45694       90.99201       86.81178
H        105.05506       94.35669       88.47130
H        103.62631       93.91647       87.44299
H        103.36707       94.57843       89.07640
N        104.29353       88.10806       87.80807
C        104.50826       86.89605       87.02806
C        104.11944       87.14881       85.58666
O        103.77580       88.27538       85.26185
C        103.66136       85.75438       87.62704
C        104.02969       85.48319       89.05533
O        103.90195       86.45249       89.97836
O        104.43295       84.38107       89.38911
H        103.31194       88.37690       87.96532
H        105.58250       86.60579       87.03320
H        103.80174       84.82397       87.03803
H        102.58362       86.02863       87.58599
N        104.20893       86.17324       84.63995
C        103.99114       86.45777       83.22871
C        102.56613       86.93751       82.92515
O        102.47273       88.04245       82.41000
C        104.46886       85.29191       82.33012
C        104.43504       85.65216       80.86296
C        105.20948       86.72145       80.37422
C        103.64241       84.91632       79.96556
C        105.18490       87.05045       79.01738
C        103.62361       85.24812       78.60682
C        104.39314       86.31455       78.13372
H        104.53068       85.23242       84.91652
H        104.67747       87.29813       82.98149
H        103.89244       84.37180       82.50813
H        105.52134       85.04842       82.59246
H        105.83728       87.30073       81.03872
H        103.04051       84.08653       80.31481
H        105.78327       87.87510       78.65192
H        103.01317       84.67740       77.91950
H        104.37855       86.56986       77.08233
N        101.41050       86.23113       83.18055
C        100.08875       86.72677       82.79241
C         99.71084       88.04975       83.43486
O         98.77782       88.69281       82.97322
C         99.12417       85.63512       83.27333
C         99.99040       84.39750       83.19297
C        101.30656       84.91353       83.76970
H        100.09431       86.81346       81.68322
H         98.90469       85.78074       84.35771
H         98.15905       85.59438       82.72394
H         99.57846       83.50362       83.70738
H        100.14667       84.15585       82.11608
H        101.23889       85.02434       84.87554
H        102.10392       84.20651       83.51157
N        100.34163       88.46850       84.56466
C        100.01832       89.70156       85.26460
C        100.60603       90.86717       84.49422
O         99.87842       91.77437       84.11783
C        100.57095       89.64640       86.70612
C         99.98843       88.44049       87.47937
C        100.52547       88.30485       88.87113
O        101.28447       89.13494       89.34289
O        100.18601       87.22495       89.59794
H        101.06566       87.86036       84.97187
H         98.91354       89.80870       85.36151
H        100.31434       90.58933       87.23833
H        101.67392       89.54570       86.67700
H        100.24586       87.49707       86.95887
H         98.88165       88.51108       87.52737
N        101.93503       90.87821       84.19736
C        102.57535       91.92544       83.43694
H        103.65257       91.68027       83.30344
H        102.10861       92.00497       82.43291
H        102.49556       92.89138       83.97569
H        102.51982       90.09551       84.50395
Ca       102.10620       87.64088       91.74408
O        101.61083       90.79270       91.91629
H        101.72644       91.55850       92.53234
H        101.50275       91.20498       91.02370
O        101.60458       89.80081       94.73976
H        101.19427       88.98062       95.11437
H        101.65952       90.41907       95.50837

Ca 1.0



