%chk=holoCaM-CaMKII.loop3.water3.frame291.chk
%nprocshared=20
%mem=10GB
%nosave
#b3lyp/svp scf=(tight,noincore,xqc) Test 
#IOP(5/87=12) Density=Current Pop=(MK,readradii) iop(6/33=2) iop(6/42=6)

holoCaM-CaMKII.loop3.water3.frame291 

   0  1 
C         41.16193       33.91467       86.24800
C         40.48009       34.15847       87.55644
O         41.08221       33.93613       88.59810
H         42.19538       33.54142       86.40913
H         40.58921       33.16635       85.66315
H         41.21123       34.86793       85.67989
N         39.21425       34.65622       87.57678
C         38.53642       34.98560       88.81780
C         38.27454       33.71492       89.64455
O         37.58143       32.81677       89.18926
C         37.27286       35.82476       88.52494
C         36.65108       36.34392       89.78256
O         37.14293       35.93807       90.96148
O         35.66679       37.05623       89.73377
H         38.75080       34.86261       86.67764
H         39.21115       35.66828       89.37973
H         36.52650       35.22873       87.95644
H         37.56719       36.70444       87.91203
N         38.86832       33.58472       90.86689
C         38.86558       32.38953       91.71084
C         37.47740       32.00492       92.21020
O         37.04984       30.89216       91.93716
C         39.83440       32.63107       92.89450
C         40.21311       31.36491       93.67146
C         41.25754       31.71255       94.74545
C         41.82966       30.45772       95.41433
N         42.83337       30.81688       96.41725
H         39.44387       34.37238       91.18300
H         39.28689       31.55604       91.10464
H         39.42230       33.40471       93.57951
H         40.78520       33.02468       92.46873
H         40.65938       30.64180       92.95382
H         39.31976       30.90013       94.14191
H         40.79487       32.37697       95.50838
H         42.10476       32.25694       94.27169
H         42.30769       29.82012       94.63677
H         41.01422       29.87556       95.89621
H         42.39009       31.37059       97.18574
H         43.24491       29.94436       96.82013
H         43.60061       31.37749       95.97872
N         36.71977       32.87517       92.94405
C         35.38355       32.55470       93.45761
C         34.26529       33.14817       92.60982
O         33.10820       32.91186       92.93118
C         35.23619       32.91363       94.96242
C         35.12590       34.38762       95.31263
O         34.12099       34.79647       95.87156
O         36.11087       35.26247       95.04466
H         37.10943       33.80526       93.11446
H         35.23495       31.45386       93.39525
H         36.07676       32.46014       95.52868
H         34.30051       32.42903       95.32347
N         34.52001       33.86710       91.47899
C         33.47500       34.34057       90.59108
C         32.55537       35.34420       91.24337
O         31.36586       35.07414       91.32649
H         35.49038       34.03291       91.18473
H         32.89051       33.46491       90.23157
H         33.93517       34.82080       89.70034
N         33.02705       36.55135       91.67100
C         32.16006       37.60758       92.19405
C         32.10011       38.80443       91.24978
O         31.36063       39.73739       91.53419
C         32.60431       38.02993       93.61418
C         33.87460       38.85659       93.65905
N         33.86568       40.10026       94.19581
O         34.91914       38.40407       93.22232
H         34.03118       36.74274       91.57120
H         31.12304       37.21907       92.28142
H         32.72907       37.12003       94.23992
H         31.78491       38.63128       94.06295
H         33.00169       40.50737       94.58180
H         34.72974       40.66043       94.23497
N         32.86578       38.85860       90.12159
C         32.89623       39.97221       89.19997
C         34.22576       40.69468       89.24905
O         34.43180       41.55208       88.40513
H         33.49813       38.08636       89.88929
H         32.10061       40.71875       89.41238
H         32.72063       39.57223       88.17733
N         35.13697       40.47345       90.25404
C         36.36429       41.25289       90.38344
C         37.59150       40.36106       90.51671
O         37.47537       39.17701       90.78202
C         36.28693       42.19810       91.60353
C         35.13601       43.18092       91.52841
C         35.39266       44.54819       91.33005
C         33.80131       42.75455       91.67094
C         34.33964       45.46504       91.25765
C         32.75034       43.67289       91.60024
C         33.01667       45.03259       91.39051
O         32.01340       45.93056       91.31875
H         34.92577       39.79945       90.99985
H         36.50598       41.87953       89.47678
H         37.24432       42.76221       91.64588
H         36.20440       41.62117       92.54816
H         36.40854       44.90667       91.22233
H         33.56554       41.71421       91.84531
H         34.55363       46.51407       91.09755
H         31.73025       43.32604       91.71078
H         31.08457       45.67325       91.40759
N         38.82239       40.90742       90.29042
C         40.09124       40.18393       90.35151
C         41.03887       40.98029       91.24759
O         41.23106       42.16122       91.00535
C         40.62744       39.99782       88.90139
C         39.66247       39.05079       88.12740
C         42.05840       39.42451       88.90439
C         39.95240       38.92803       86.63300
H         38.85947       41.89346       89.99416
H         39.95937       39.16676       90.77813
H         40.65259       40.99251       88.40354
H         38.62200       39.42811       88.19969
H         39.68909       38.03823       88.58822
H         42.45015       39.32410       87.87271
H         42.75264       40.10861       89.43507
H         42.08492       38.43154       89.40203
H         39.20128       38.24884       86.17440
H         39.86663       39.92389       86.14950
H         40.95472       38.50078       86.43741
N         41.65359       40.38394       92.31331
C         42.45988       41.10573       93.29900
C         43.90727       40.63026       93.31105
O         44.26999       39.77128       92.52822
C         41.81669       40.90725       94.68297
O         41.88968       39.55707       95.06568
H         41.51856       39.37737       92.45736
H         42.46769       42.19392       93.07617
H         40.75995       41.26274       94.63855
H         42.32653       41.51860       95.45546
H         40.97636       39.26693       95.31928
N         44.79281       41.17394       94.19947
C         46.19432       40.77324       94.31380
C         46.33198       39.31359       94.70656
O         47.02163       38.57665       94.01468
C         46.90070       41.63900       95.36755
H         44.45236       41.91736       94.82557
H         46.70909       40.95012       93.34323
H         47.97210       41.35386       95.44383
H         46.84415       42.70997       95.07929
H         46.42849       41.51790       96.36632
N         45.69932       38.83003       95.81336
C         45.80342       37.44735       96.27603
C         45.42634       36.46577       95.18585
O         46.17150       35.52347       94.95721
C         44.90748       37.23003       97.49995
H         45.10049       39.48036       96.34687
H         46.85066       37.24142       96.59353
H         43.84185       37.41946       97.24891
H         45.01075       36.18649       97.86850
H         45.21190       37.91762       98.31790
N         44.30919       36.66502       94.43217
C         43.91993       35.79564       93.32332
C         45.07273       35.64949       92.34227
O         45.50489       34.53002       92.10236
C         42.67170       36.36099       92.60804
C         41.42262       36.33817       93.50867
C         40.25207       36.99764       92.83596
O         39.86971       36.61850       91.74498
O         39.62022       38.02490       93.43150
H         43.74642       37.50520       94.63035
H         43.67130       34.78323       93.71513
H         42.45326       35.74513       91.70695
H         42.88395       37.39879       92.27327
H         41.60896       36.86715       94.46498
H         41.16894       35.28362       93.74612
N         45.65240       36.73963       91.77304
C         46.79556       36.63844       90.89305
H         47.64198       36.15668       91.42881
H         46.53535       36.04209       89.99405
H         47.11663       37.65282       90.57302
H         45.29314       37.67474       91.99309
Ca        36.14076       35.94536       92.93045
O         37.60435       39.95403       94.24452
H         38.19843       40.60264       93.79002
H         37.92746       39.93585       95.18016
O         36.05615       38.09852       96.14216
H         36.01016       38.39800       97.08412
H         35.27572       37.49960       96.03607
O         38.80482       36.36450       95.68626
H         38.74988       35.52011       96.19963
H         39.21686       37.01283       96.31085

Ca 1.0



