%chk=holoCaM-CaMKII.loop3.water2.frame458.chk
%nprocshared=20
%mem=10GB
%nosave
#b3lyp/svp scf=(tight,noincore,xqc) Test 
#IOP(5/87=12) Density=Current Pop=(MK,readradii) iop(6/33=2) iop(6/42=6)

holoCaM-CaMKII.loop3.water2.frame458 

   0  1 
C         63.42862       65.62629       32.94093
C         63.05961       66.17114       31.59525
O         63.91648       66.21628       30.72657
H         64.22718       66.24825       33.39309
H         62.55274       65.60786       33.62304
H         63.79664       64.58508       32.81991
N         61.79425       66.60986       31.35345
C         61.32367       67.04690       30.04933
C         61.00749       68.53281       30.08405
O         60.27633       68.97697       30.95827
C         60.07095       66.22677       29.68698
C         59.54742       66.48931       28.30747
O         60.14284       67.21585       27.52763
O         58.38272       65.92512       27.94020
H         61.11318       66.61121       32.12873
H         62.09141       66.85075       29.26718
H         59.26633       66.45981       30.41729
H         60.29680       65.14050       29.74761
N         61.50349       69.35076       29.11388
C         61.25004       70.78729       29.03138
C         59.75585       71.09145       29.03984
O         59.32756       71.94340       29.80528
C         61.87062       71.33380       27.72022
C         61.79836       72.86346       27.58914
C         62.25137       73.31098       26.19068
C         62.21161       74.83948       26.05549
N         62.53354       75.25456       24.68986
H         62.07389       68.91777       28.37022
H         61.74288       71.29359       29.89063
H         61.33082       70.87570       26.87162
H         62.93970       71.03363       27.64963
H         62.43996       73.32384       28.37199
H         60.75307       73.21066       27.73275
H         61.56389       72.86361       25.43852
H         63.28361       72.95146       25.98491
H         62.94163       75.29086       26.76395
H         61.19545       75.21231       26.31290
H         63.48607       74.91767       24.42047
H         61.82274       74.87145       24.02439
H         62.51313       76.29865       24.63523
N         58.91697       70.43402       28.18974
C         57.50633       70.77580       27.99164
C         56.51453       69.73243       28.49377
O         55.32358       70.01088       28.43837
C         57.26414       71.06796       26.49037
C         57.56116       69.90108       25.55598
O         57.41906       70.05209       24.35567
O         57.98928       68.71043       26.04121
H         59.33150       69.68286       27.62849
H         57.26792       71.69837       28.56675
H         57.91230       71.92263       26.19910
H         56.20696       71.38511       26.34866
N         56.89856       68.53762       29.02061
C         55.94851       67.59074       29.58923
C         54.92871       67.00354       28.62281
O         54.04975       66.30619       29.11098
H         57.89810       68.31882       29.09292
H         55.39486       68.11187       30.40046
H         56.50092       66.74433       30.05271
N         54.94935       67.21144       27.26869
C         53.90326       66.67734       26.38728
C         53.87776       65.15001       26.32317
O         52.99659       64.62278       25.65700
C         54.02640       67.22820       24.94245
C         55.13869       66.57038       24.17116
N         54.89517       65.86073       23.04596
O         56.27336       66.65534       24.58505
H         55.68794       67.79898       26.86160
H         52.93237       67.04810       26.78379
H         54.17399       68.32944       24.96472
H         53.07395       67.03004       24.40565
H         53.94228       65.75988       22.66953
H         55.67206       65.40093       22.55342
N         54.81767       64.37708       26.94459
C         54.86291       62.93499       26.81965
C         56.25011       62.49212       26.43593
O         56.82858       61.71248       27.18032
H         55.54827       64.80537       27.52714
H         54.13471       62.55894       26.06917
H         54.60141       62.48317       27.80125
N         56.85105       62.93636       25.29108
C         58.16981       62.46458       24.86889
C         59.22605       63.60349       24.77997
O         59.03538       64.48195       25.84790
C         58.01774       61.63806       23.57023
C         57.29581       62.36176       22.45333
C         57.88308       63.44469       21.78010
C         56.00820       61.93976       22.07401
C         57.19311       64.09335       20.74732
C         55.31753       62.59335       21.05192
C         55.90758       63.67357       20.38362
O         55.24806       64.31596       19.39834
H         56.34461       63.60231       24.68742
H         58.56791       61.76029       25.63338
H         57.41721       60.74606       23.85438
H         58.99045       61.25236       23.20213
H         58.87436       63.78004       22.04814
H         55.53006       61.10834       22.57696
H         57.65300       64.92757       20.23307
H         54.32335       62.25877       20.78256
H         54.35329       64.06204       19.12875
N         60.55374       62.98164       24.93490
C         61.71841       63.87984       25.06131
C         62.66544       63.68074       23.88662
O         62.91385       62.54801       23.49372
C         62.41309       63.65975       26.44084
C         63.48260       64.75628       26.68441
C         62.99164       62.24069       26.59217
C         64.14123       64.68755       28.05886
H         60.70996       62.14712       24.32725
H         61.37550       64.93888       25.06492
H         61.63166       63.78848       27.22435
H         62.97482       65.74275       26.62074
H         64.28018       64.71416       25.91329
H         62.20138       61.48069       26.42467
H         63.82400       62.07045       25.87860
H         63.37676       62.07998       27.62007
H         63.36100       64.70356       28.84553
H         64.75756       63.77315       28.17014
H         64.81341       65.56277       28.18835
N         63.26555       64.74894       23.30330
C         64.13073       64.64393       22.13765
C         65.57928       64.86633       22.51472
O         65.87899       65.08462       23.68005
C         63.67055       65.68430       21.09902
O         63.80886       66.97783       21.62649
H         63.11947       65.67977       23.71664
H         64.06403       63.63089       21.68391
H         62.60412       65.49228       20.84830
H         64.27634       65.59890       20.17195
H         63.46141       67.60248       20.93928
N         66.54164       64.82344       21.55342
C         67.93349       65.18051       21.79077
C         68.02712       66.64204       22.18786
O         68.73822       66.95801       23.12896
C         68.76386       64.94741       20.52584
H         66.26084       64.56851       20.59355
H         68.36880       64.53212       22.58539
H         68.71604       63.87498       20.23890
H         68.38820       65.56368       19.68191
H         69.82722       65.20722       20.71864
N         67.31933       67.59184       21.50610
C         67.35217       69.01174       21.85219
C         66.77124       69.32713       23.23330
O         66.92004       70.46369       23.66302
C         66.60084       69.82610       20.79337
H         66.75141       67.29127       20.69899
H         68.41765       69.33157       21.83782
H         65.52806       69.53550       20.77259
H         66.67703       70.91292       21.00919
H         67.04150       69.63971       19.79065
N         66.11883       68.39512       23.99047
C         65.63888       68.63982       25.35108
C         66.41077       67.80071       26.36927
O         66.23210       68.02452       27.55794
C         64.13777       68.30406       25.46322
C         63.24805       69.13339       24.52802
C         61.81614       68.67653       24.60893
O         60.83919       69.53897       24.93828
O         61.52611       67.52187       24.34849
H         65.96457       67.46226       23.59791
H         65.80094       69.70415       25.62885
H         63.79239       68.45604       26.51016
H         64.02179       67.23138       25.20859
H         63.58621       69.00816       23.47894
H         63.31818       70.20886       24.80040
N         67.27983       66.81885       25.99221
C         68.05138       66.04267       26.93487
H         68.74180       66.70938       27.49198
H         67.37913       65.51142       27.63896
H         68.65851       65.28834       26.38655
H         67.40576       66.58825       25.00694
Ca        58.73348       66.69222       25.20770
O         60.01688       66.20431       22.06438
H         59.93436       65.83646       21.14936
H         60.63116       66.97304       21.96213
O         57.66709       68.04052       22.38098
H         57.17733       67.62349       21.62940
H         57.86554       68.95876       22.06908

Ca 1.0



