%chk=holoCaM-CaMKII.loop2.water1.frame39.chk
%nprocshared=20
%mem=10GB
%nosave
#b3lyp/svp scf=(tight,noincore,xqc) Test 
#IOP(5/87=12) Density=Current Pop=(MK,readradii) iop(6/33=2) iop(6/42=6)

holoCaM-CaMKII.loop2.water1.frame39 

   -2  1 
C         20.36400       82.25940       28.36931
C         19.91351       82.35654       29.80284
O         18.79224       82.77220       30.04909
H         21.39434       81.84830       28.29315
H         19.68578       81.57901       27.81136
H         20.35120       83.26056       27.89289
N         20.74197       81.95731       30.80426
C         20.36998       81.91789       32.21562
C         20.08540       83.29804       32.79896
O         20.92251       84.18205       32.68290
C         21.51004       81.25861       33.01262
C         21.15437       81.10560       34.45740
O         21.90751       81.69908       35.40252
O         20.17810       80.44858       34.77778
H         21.67575       81.60640       30.53838
H         19.47370       81.26552       32.32367
H         22.43550       81.86800       32.91940
H         21.71099       80.24678       32.59901
N         18.94132       83.51122       33.51559
C         18.60991       84.76539       34.18861
C         18.42615       84.61539       35.70717
O         18.21995       85.63616       36.34944
C         17.30968       85.31661       33.58720
H         18.27881       82.73352       33.59671
H         19.41642       85.51071       34.02030
H         17.04510       86.29485       34.04252
H         17.41984       85.45782       32.49154
H         16.46949       84.61126       33.76865
N         18.41183       83.40112       36.34300
C         18.04025       83.24507       37.76143
C         18.89080       82.25040       38.55351
O         18.69881       82.16679       39.75913
C         16.55205       82.83071       37.83837
C         16.24399       81.53736       37.11792
O         15.08280       81.21808       36.92861
O         17.24164       80.78445       36.60857
H         18.50903       82.56255       35.76366
H         18.13892       84.22479       38.27845
H         15.97123       83.63913       37.34179
H         16.20497       82.76591       38.89235
N         19.80526       81.43476       37.96234
C         20.59171       80.44643       38.68002
C         19.73105       79.41238       39.37245
O         19.86311       79.24850       40.57681
H         19.95434       81.49672       36.95471
H         21.24732       80.95708       39.41743
H         21.24489       79.91315       37.95384
N         18.84793       78.65583       38.66193
C         18.05550       77.57304       39.24485
C         18.41389       76.22287       38.61777
O         17.75773       75.23684       38.92463
C         16.54533       77.89472       39.16281
C         15.94572       77.99755       37.78751
N         14.62688       78.25493       37.66240
O         16.62604       77.84904       36.78668
H         18.75872       78.83694       37.65107
H         18.26473       77.47597       40.33261
H         16.36176       78.85699       39.68943
H         15.98773       77.10121       39.70713
H         14.02809       78.38662       38.49028
H         14.20466       78.32104       36.73248
N         19.48957       76.09141       37.78316
C         19.93789       74.83027       37.21151
C         19.09276       74.30461       36.06186
O         19.47665       73.28645       35.50451
H         20.09308       76.90486       37.60451
H         20.03282       74.06795       38.01623
H         20.95387       74.99345       36.79080
N         17.94853       74.91962       35.64416
C         17.11553       74.43904       34.54119
C         16.82216       75.54717       33.54311
O         16.55796       76.66956       33.95401
C         15.77131       73.90498       35.07841
C         15.97111       72.65645       35.93709
O         15.10356       74.88255       35.83627
H         17.61892       75.74579       36.15178
H         17.59891       73.59304       34.00241
H         15.13793       73.58792       34.21475
H         14.62223       75.47005       35.19718
H         16.58200       72.88593       36.83490
H         14.98383       72.26871       36.26428
H         16.47908       71.86329       35.34613
N         16.75065       75.27382       32.20687
C         16.33031       76.27943       31.23211
C         14.84220       76.57267       31.44732
O         14.03796       75.66781       31.26652
C         16.52612       75.80915       29.74897
C         17.95384       75.27270       29.45991
C         16.19953       76.98406       28.79830
C         18.10235       74.70975       28.04061
H         16.96266       74.31610       31.89456
H         16.96258       77.18464       31.38169
H         15.81750       74.97287       29.55342
H         18.18509       74.42876       30.13819
H         18.71117       76.06709       29.62940
H         15.18544       77.37356       28.97876
H         16.92157       77.81623       28.94814
H         16.21516       76.67787       27.73534
H         17.99669       75.49912       27.27048
H         19.11075       74.26368       27.91919
H         17.34304       73.91782       27.85907
N         14.39887       77.80306       31.82598
C         12.97415       78.12556       31.95279
C         12.35361       78.35168       30.58777
O         13.06446       78.33300       29.60095
C         12.78182       79.39692       32.79473
C         13.23632       79.17562       34.19540
O         12.63721       78.22786       34.94115
O         14.12441       79.86118       34.67104
H         15.09266       78.52917       32.02726
H         12.44886       77.28714       32.46125
H         11.70621       79.65351       32.86399
H         13.32835       80.24866       32.33036
N         11.01420       78.57735       30.45288
C         10.41525       78.85059       29.15236
C         10.88483       80.20024       28.60267
O         11.34749       80.21001       27.46816
C          8.87107       78.77686       29.18866
C          8.31758       78.81005       27.78408
C          7.60146       79.92477       27.31805
C          8.53059       77.71954       26.92115
C          7.11706       79.94958       26.00599
C          8.03630       77.74450       25.61562
C          7.33293       78.86020       25.15659
H         10.40950       78.52742       31.28506
H         10.73380       78.03387       28.46660
H          8.44288       79.60062       29.78019
H          8.53630       77.83227       29.66928
H          7.43364       80.77916       27.96186
H          9.07471       76.84695       27.26181
H          6.57644       80.81489       25.64619
H          8.20171       76.89899       24.96029
H          6.95630       78.87995       24.14247
N         10.81764       81.37990       29.31038
C         11.27878       82.67285       28.80670
C         12.69416       82.61150       28.26436
O         12.96364       83.10710       27.18181
C         11.25627       83.58177       30.05081
C         10.11590       83.00013       30.84472
C         10.37579       81.50996       30.69007
H         10.56151       83.04390       28.04117
H         12.16565       83.41484       30.67471
H         11.18840       84.66846       29.83304
H         10.04914       83.34405       31.89979
H          9.16649       83.24882       30.31938
H         11.20629       81.19114       31.34680
H          9.45198       80.97621       30.95470
N         13.64152       81.97491       29.00221
C         15.04983       81.83847       28.64498
C         15.17798       81.13390       27.30933
O         15.84131       81.65783       26.42438
C         15.78832       81.10522       29.79852
C         15.72259       81.99205       31.06589
C         16.20169       81.38529       32.34271
O         16.03623       82.02528       33.36828
O         16.73127       80.15333       32.43550
H         13.31667       81.52972       29.87187
H         15.51723       82.84484       28.54944
H         16.85237       80.92121       29.53532
H         15.29881       80.12332       29.98199
H         14.67643       82.27268       31.28640
H         16.28076       82.93552       30.88708
N         14.50065       79.98273       27.06231
C         14.51159       79.33493       25.77016
H         14.14772       80.04043       24.99128
H         15.53820       78.99799       25.52054
H         13.83273       78.45529       25.78451
H         13.91355       79.58062       27.79907
Ca        17.13409       79.74355       34.61318
O         19.56032       77.65055       35.05611
H         19.58210       77.79756       34.07759
H         20.47584       77.87201       35.36227

Ca 1.0



