%chk=holoCaM.loop2.water3.frame453.chk
%nprocshared=20
%mem=10GB
%nosave
#b3lyp/svp scf=(tight,noincore,xqc) Test 
#IOP(5/87=12) Density=Current Pop=(MK,readradii) iop(6/33=2) iop(6/42=6)

holoCaM.loop2.water3.frame453 

   -2  1 
C          8.90760       88.61353       56.71249
C          8.27813       89.93350       56.39683
O          8.95874       90.94928       56.43117
H          9.98068       88.73983       56.96769
H          8.37930       88.14433       57.56743
H          8.82766       87.95121       55.82381
N          6.96614       89.98413       56.04316
C          6.31644       91.21708       55.63237
C          6.23918       92.20935       56.78659
O          5.52002       91.97319       57.74757
C          4.92240       90.89556       55.07011
C          4.25722       92.05623       54.41124
O          3.18807       91.87597       53.86499
O          4.82858       93.27323       54.37307
H          6.43814       89.09784       56.00157
H          6.92080       91.63850       54.79587
H          4.26498       90.49447       55.87220
H          5.02686       90.11231       54.29121
N          6.99831       93.33741       56.75436
C          7.00507       94.35296       57.79741
C          5.68894       95.12333       57.82157
O          5.03913       95.15363       58.85688
C          8.19271       95.30512       57.57536
H          7.64903       93.44665       55.96855
H          7.18360       93.86330       58.78120
H          9.13873       94.71839       57.57553
H          8.12024       95.83307       56.60106
H          8.25494       96.05405       58.39214
N          5.25909       95.80572       56.71796
C          4.04516       96.63389       56.69893
C          2.74191       95.83702       56.72356
O          1.69507       96.45460       56.86644
C          4.02545       97.60518       55.48800
C          3.96328       96.90670       54.15237
O          3.02000       97.07679       53.39850
O          4.98686       96.11323       53.79954
H          5.87585       95.78633       55.89800
H          4.07762       97.27544       57.60714
H          4.93987       98.23690       55.51520
H          3.15022       98.28447       55.58927
N          2.70910       94.48537       56.56010
C          1.47963       93.71070       56.58564
C          0.49016       94.10873       55.50628
O         -0.63085       94.45736       55.84897
H          3.58667       93.96774       56.43002
H          1.00520       93.81750       57.58600
H          1.72716       92.63536       56.44590
N          0.81084       94.01205       54.18226
C         -0.15342       94.23192       53.10167
C         -0.54723       92.92533       52.41459
O         -1.45326       92.95406       51.59349
C          0.37147       95.25138       52.06566
C          1.53646       94.73546       51.24465
N          1.42084       94.58897       49.90334
O          2.59276       94.45343       51.78777
H          1.75899       93.71197       53.94281
H         -1.08967       94.64786       53.53248
H          0.66151       96.19329       52.57578
H         -0.46532       95.49727       51.37607
H          0.54296       94.81602       49.41438
H          2.21727       94.24802       49.34708
N          0.08351       91.74745       52.69189
C         -0.28471       90.46753       52.11501
C          0.81279       89.88413       51.25233
O          0.79105       88.68016       51.03783
H          0.86168       91.72693       53.35738
H         -1.21649       90.51392       51.51398
H         -0.47518       89.77774       52.96607
N          1.75853       90.67057       50.65834
C          2.82119       90.14184       49.80120
C          4.17445       90.59895       50.31141
O          4.21754       91.38316       51.25113
C          2.61534       90.61966       48.34113
C          1.26651       90.15703       47.78190
O          2.68927       92.01952       48.28040
H          1.71261       91.69303       50.78880
H          2.81213       89.02981       49.80709
H          3.42311       90.17747       47.71331
H          2.84035       92.26277       47.32945
H          1.19396       89.05008       47.81813
H          0.42862       90.59859       48.36230
H          1.16697       90.48416       46.72512
N          5.33084       90.17368       49.72107
C          6.63616       90.70341       50.10389
C          7.26345       91.44664       48.93405
O          6.78467       91.35302       47.81080
C          7.56337       89.61278       50.72799
C          7.96595       88.50510       49.72191
C          6.89198       89.03208       51.98646
C          8.95523       87.48852       50.30731
H          5.28157       89.48825       48.95156
H          6.50008       91.47557       50.89064
H          8.49741       90.11481       51.05926
H          8.46628       88.98274       48.85254
H          7.06995       87.96026       49.35738
H          5.96025       88.48624       51.72469
H          7.56679       88.34474       52.53442
H          6.64566       89.85470       52.68651
H          8.49773       86.90092       51.12942
H          9.26196       86.76802       49.52058
H          9.86243       88.00388       50.68780
N          8.31838       92.26813       49.16527
C          8.99506       93.08556       48.16805
C         10.45052       92.64312       48.10702
O         10.80056       91.71898       48.82232
C          8.79829       94.56519       48.58328
C          9.27546       95.57724       47.58056
O          8.84247       95.56226       46.43976
O         10.13115       96.54843       47.94978
H          8.65901       92.34286       50.12768
H          8.53867       92.93383       47.16556
H          9.27367       94.75028       49.57219
H          7.70826       94.73982       48.69758
N         11.35637       93.19746       47.25847
C         12.73761       92.72480       47.18848
C         13.47807       92.90326       48.52329
O         14.00200       91.90796       49.00235
C         13.46837       93.35277       45.97979
C         14.88355       92.85019       45.80918
C         15.14932       91.47932       45.63069
C         15.95525       93.75976       45.80540
C         16.46251       91.03163       45.45735
C         17.26552       93.30771       45.62579
C         17.51936       91.94505       45.45289
H         11.05114       93.94247       46.61627
H         12.70507       91.63361       46.97000
H         13.46769       94.45361       46.04086
H         12.90060       93.09190       45.06017
H         14.34554       90.75483       45.62195
H         15.77771       94.82024       45.93406
H         16.66048       89.97608       45.32189
H         18.08405       94.01551       45.61779
H         18.53461       91.59749       45.31272
N         13.55606       94.09154       49.20838
C         14.22333       94.25620       50.50021
C         13.76505       93.25192       51.54184
O         14.59024       92.64551       52.20988
C         13.79778       95.66544       50.95285
C         13.64220       96.38276       49.63865
C         12.92826       95.32932       48.80266
H         15.32458       94.21204       50.34783
H         12.77620       95.64311       51.39882
H         14.48000       96.14182       51.68871
H         13.11707       97.36044       49.69097
H         14.66005       96.53869       49.21432
H         11.85378       95.25799       49.06506
H         13.06370       95.59911       47.74483
N         12.43255       93.04575       51.72168
C         11.84972       92.16880       52.73264
C         12.34710       90.74699       52.53363
O         12.84411       90.14783       53.47657
C         10.29806       92.25551       52.69080
C          9.82160       93.71482       52.90432
C          8.33700       93.93695       52.91832
O          7.55626       93.69163       51.84785
O          7.83809       94.49088       53.88168
H         11.80265       93.54475       51.07965
H         12.15672       92.51745       53.74433
H          9.87237       91.61128       53.49148
H          9.94734       91.87117       51.72180
H         10.19638       94.38377       52.10895
H         10.23929       94.07517       53.87005
N         12.30989       90.17409       51.30179
C         12.84039       88.86020       51.01933
H         13.91654       88.81890       51.29178
H         12.27585       88.09072       51.58302
H         12.75025       88.64839       49.93087
H         11.93420       90.71161       50.51973
Ca         5.57722       94.74614       52.11227
O          4.03388       96.69427       50.18742
H          3.92350       97.28378       50.97381
H          3.17444       96.76566       49.70216
O          7.25908       96.79275       51.17426
H          6.72193       97.61205       51.03293
H          8.17995       97.04067       50.91202
O          5.18916       94.09796       49.29019
H          4.94225       93.19839       48.96397
H          5.21735       94.65912       48.47552

Ca 1.0



