%chk=holoCaM-CaMKII.loop4.water1.frame355.chk
%nprocshared=20
%mem=10GB
%nosave
#b3lyp/svp scf=(tight,noincore,xqc) Test 
#IOP(5/87=12) Density=Current Pop=(MK,readradii) iop(6/33=2) iop(6/42=6)

holoCaM-CaMKII.loop4.water1.frame355 

   -3  1 
C         42.39346       54.51881       19.68782
C         41.50999       53.62859       18.87297
O         41.19482       52.53686       19.31631
H         43.31883       54.73584       19.11399
H         41.86336       55.46827       19.90736
H         42.67212       54.02774       20.64454
N         41.05015       54.05301       17.66542
C         40.21748       53.23797       16.79143
C         41.04669       52.10963       16.18366
O         41.71196       52.31394       15.17700
C         39.59696       54.14161       15.71298
C         38.73311       53.37449       14.77485
O         38.99923       53.36396       13.58659
O         37.66746       52.69708       15.23636
H         41.28895       55.01331       17.37269
H         39.37303       52.81485       17.38354
H         40.40344       54.65092       15.14014
H         38.97337       54.91976       16.20435
N         41.10832       50.90542       16.80981
C         41.95033       49.80021       16.36608
C         41.37819       49.19050       15.07831
O         42.08524       49.19391       14.07996
C         42.15861       48.79917       17.55914
C         42.90988       49.53560       18.71741
C         42.96208       47.55509       17.14005
C         42.94311       48.78957       20.05214
H         40.58254       50.79898       17.68660
H         42.97035       50.19073       16.13903
H         41.15901       48.46679       17.91565
H         42.41807       50.49444       18.94289
H         43.94997       49.77520       18.40168
H         43.97403       47.84358       16.78256
H         43.07815       46.85378       17.99256
H         42.43788       47.00130       16.33572
H         43.46614       49.42075       20.80487
H         41.90838       48.61277       20.41430
H         43.48692       47.82837       19.98191
N         40.12997       48.62707       15.02481
C         39.63763       47.90533       13.84094
C         39.18210       48.76745       12.64845
O         38.82419       48.18229       11.63500
C         38.56157       46.85190       14.21132
C         37.14312       47.33106       14.41281
O         36.26785       46.50234       14.60503
O         36.80472       48.63278       14.34224
H         39.59602       48.57429       15.90061
H         40.49214       47.28264       13.49148
H         38.90492       46.27865       15.10143
H         38.50899       46.13494       13.36294
N         39.19172       50.13247       12.65953
C         38.89115       50.93315       11.47143
C         37.41298       51.13267       11.17409
O         36.98106       50.81790       10.07438
H         39.55014       50.62379       13.49036
H         39.42355       50.51053       10.59052
H         39.30584       51.94877       11.61558
N         36.59470       51.71854       12.09463
C         35.20262       52.10517       11.84765
C         34.88180       53.52328       12.35514
O         33.71708       53.89848       12.34319
C         34.24660       51.04426       12.43270
C         34.32969       50.80300       13.91511
O         33.52403       49.87961       14.47103
O         35.11435       51.41180       14.62091
H         36.98325       51.89226       13.02672
H         34.98618       52.10333       10.75542
H         34.45760       50.08085       11.92061
H         33.20131       51.33189       12.18327
N         35.85915       54.38469       12.76681
C         35.61136       55.74496       13.22525
C         35.03952       55.85850       14.62604
O         34.88175       56.99124       15.06371
H         36.84259       54.11164       12.67295
H         34.96633       56.28134       12.49467
H         36.58610       56.27967       13.25937
N         34.71340       54.77833       15.39878
C         34.19982       54.90982       16.76258
C         35.03166       54.12860       17.76890
O         35.88735       53.34824       17.36983
C         32.69126       54.58446       16.78836
C         32.23420       53.20558       16.27606
C         32.52905       52.07168       17.22117
N         31.51896       51.48163       17.89953
O         33.67121       51.66886       17.37131
H         34.81227       53.83331       15.01045
H         34.27948       55.97067       17.08624
H         32.21544       55.33055       16.11378
H         32.27503       54.75374       17.80510
H         32.62091       52.98201       15.25897
H         31.12962       53.27941       16.17819
H         30.54663       51.80737       17.80156
H         31.70807       50.70476       18.54034
N         34.88215       54.35862       19.10820
C         35.68770       53.70877       20.14105
C         34.77598       53.14740       21.22978
O         34.15100       53.91199       21.95270
C         36.72488       54.72818       20.70441
C         37.50476       54.20322       21.92069
C         37.73970       55.11041       19.60963
H         34.21327       55.08564       19.40800
H         36.26528       52.86615       19.70249
H         36.18089       55.64047       21.03372
H         38.19460       54.98863       22.29662
H         36.82239       53.94088       22.75402
H         38.11498       53.32541       21.64940
H         38.47030       55.85248       19.99458
H         38.30261       54.20985       19.27603
H         37.23576       55.55564       18.72827
N         34.65860       51.80033       21.39073
C         33.87782       51.14643       22.44283
C         34.58739       51.23791       23.78606
O         35.66680       51.80423       23.86864
C         33.73787       49.64183       22.09360
C         32.95170       49.44465       20.82948
N         33.53394       48.91887       19.72770
O         31.77132       49.75934       20.80519
H         35.14149       51.19940       20.71075
H         32.86138       51.59487       22.50745
H         33.20830       49.07449       22.88662
H         34.75594       49.20189       21.99414
H         34.53055       48.65834       19.73162
H         32.99130       48.78316       18.86277
N         34.05367       50.61748       24.87793
C         34.79221       50.40000       26.11832
C         35.99215       49.49585       25.85026
O         37.06401       49.76372       26.37215
C         33.87684       49.74698       27.17804
C         34.60955       49.47895       28.47620
C         35.20131       50.53013       29.20030
C         34.71407       48.16717       28.96952
C         35.89328       50.27028       30.38710
C         35.40197       47.91087       30.15925
C         35.99712       48.96232       30.87056
O         36.66931       48.72840       32.01574
H         33.10987       50.20903       24.79822
H         35.13155       51.37743       26.52582
H         33.46610       48.79726       26.76865
H         33.02010       50.42428       27.38572
H         35.13529       51.55066       28.84619
H         34.26589       47.34018       28.43318
H         36.35117       51.08734       30.93064
H         35.47403       46.89441       30.52505
H         36.76621       47.83810       32.38289
N         35.87811       48.40661       25.03226
C         36.99333       47.51224       24.70745
C         38.15083       48.22902       24.00123
O         39.22673       47.65270       23.92689
C         36.46047       46.35005       23.82998
C         37.49987       45.28193       23.45179
C         36.86931       44.19624       22.62829
O         36.35973       44.45928       21.54996
O         36.87840       42.92353       23.06694
H         34.95120       48.20536       24.62646
H         37.37548       47.10049       25.66825
H         36.03354       46.78096       22.89628
H         35.63923       45.84807       24.38881
H         37.93471       44.84548       24.37657
H         38.31404       45.72022       22.84065
N         38.01673       49.47779       23.46965
C         39.09456       50.19443       22.79261
C         39.52926       51.43337       23.56463
O         40.51747       52.03581       23.16761
C         38.62597       50.59789       21.38395
C         38.36296       49.38933       20.49143
C         37.81852       49.82150       19.16674
O         38.50857       49.56888       18.05021
O         36.72866       50.36069       19.08559
H         37.10638       49.94232       23.52095
H         40.00075       49.55394       22.71210
H         39.39742       51.22882       20.88974
H         37.68675       51.18241       21.48225
H         37.62668       48.70083       20.95774
H         39.31850       48.84190       20.34026
N         38.86574       51.87180       24.67223
C         39.28423       53.00390       25.46996
H         40.23096       53.45336       25.10678
H         38.48858       53.77717       25.45630
H         39.43726       52.66675       26.51750
H         38.01449       51.39955       24.98185
Ca        37.46822       49.82778       16.09405
O         35.02222       48.05998       17.03629
H         35.94539       47.79823       17.27958
H         34.45475       47.35674       17.44035

Ca 1.0



