%chk=holoCaM-CaMKII.loop3.water2.frame390.chk
%nprocshared=20
%mem=10GB
%nosave
#b3lyp/svp scf=(tight,noincore,xqc) Test 
#IOP(5/87=12) Density=Current Pop=(MK,readradii) iop(6/33=2) iop(6/42=6)

holoCaM-CaMKII.loop3.water2.frame390 

   0  1 
C         49.82527       91.96294       87.48550
C         50.20933       92.88650       88.59506
O         50.02729       92.53314       89.75277
H         49.06625       92.45132       86.84220
H         50.72631       91.72049       86.88353
H         49.40648       91.01855       87.89489
N         50.79149       94.08664       88.31669
C         51.25344       94.96047       89.37853
C         50.06398       95.53435       90.14627
O         49.29177       96.29635       89.58114
C         52.16251       96.07699       88.82362
C         52.88905       96.77443       89.93292
O         53.57416       97.75186       89.69665
O         52.79642       96.29923       91.18801
H         50.97405       94.33741       87.33251
H         51.88048       94.33118       90.04325
H         51.54774       96.80068       88.24423
H         52.93475       95.65105       88.14707
N         49.83183       95.14957       91.43065
C         48.65921       95.54860       92.20238
C         48.68554       97.02705       92.57447
O         47.69369       97.70284       92.34059
C         48.51216       94.63481       93.44438
C         47.14971       94.81826       94.13971
C         46.82892       93.72285       95.17209
C         47.77577       93.69723       96.37865
N         47.35336       92.67556       97.33926
H         50.47367       94.46098       91.84165
H         47.75755       95.33816       91.58331
H         49.34429       94.79233       94.15997
H         48.55530       93.58368       93.07997
H         46.35296       94.74737       93.36690
H         47.08883       95.82372       94.60822
H         46.84234       92.72929       94.67084
H         45.79587       93.90370       95.54172
H         47.76615       94.69168       96.87610
H         48.81225       93.47525       96.04558
H         48.00809       92.67472       98.15413
H         46.38762       92.88285       97.68485
H         47.36799       91.72963       96.89240
N         49.79044       97.59898       93.13947
C         49.85645       99.00150       93.56485
C         50.67636       99.87458       92.61116
O         50.80097      101.06120       92.88372
C         50.31902       99.09588       95.04318
C         51.65540       98.45550       95.28714
O         52.74042       98.88227       94.62536
O         51.74028       97.47257       96.00584
H         50.63347       97.01842       93.24696
H         48.84190       99.45687       93.53852
H         49.56149       98.57881       95.67241
H         50.35720      100.15846       95.36612
N         51.15450       99.40291       91.42047
C         51.70810      100.27621       90.39176
C         53.06845      100.88516       90.67810
O         53.48910      101.69945       89.86773
H         50.99240       98.42080       91.16202
H         50.97939      101.09824       90.21093
H         51.79538       99.71164       89.43920
N         53.82223      100.57223       91.77360
C         55.08476      101.25888       92.05869
C         56.18494      101.00534       91.02635
O         57.19718      101.69003       91.09291
C         55.62081      100.91400       93.46745
C         56.31200       99.57074       93.52731
N         57.61889       99.49022       93.86326
O         55.70371       98.55250       93.25094
H         53.45710       99.89525       92.45047
H         54.83902      102.34448       92.06592
H         54.79647      100.96236       94.21114
H         56.36143      101.69304       93.74878
H         58.16644      100.33175       94.09464
H         58.08618       98.57669       93.88509
N         56.08870      100.01930       90.08554
C         57.12501       99.74523       89.10231
C         57.67659       98.32798       89.15016
O         58.52340       98.03986       88.31885
H         55.24364       99.43997       90.04851
H         57.98021      100.44489       89.20972
H         56.68755       99.90396       88.09252
N         57.23785       97.37551       90.03294
C         57.71783       95.98829       89.96562
C         56.81135       95.01006       90.69363
O         55.89039       95.41798       91.38466
C         59.19374       95.85117       90.44180
C         59.47642       96.25065       91.88377
C         58.87091       95.59410       92.97591
C         60.40596       97.27361       92.14904
C         59.17509       95.96458       94.29007
C         60.71691       97.63444       93.46451
C         60.10145       96.98573       94.53892
O         60.40331       97.35427       95.80060
H         56.49262       97.62004       90.69648
H         57.65337       95.66917       88.90162
H         59.83176       96.45346       89.76278
H         59.52599       94.79946       90.31468
H         58.16906       94.78860       92.83231
H         60.90314       97.78896       91.33722
H         58.69301       95.45338       95.11454
H         61.43765       98.42113       93.64868
H         59.98847       96.94131       96.57158
N         57.03144       93.66613       90.54793
C         56.23658       92.64683       91.22561
C         57.12025       91.78984       92.11746
O         58.32908       91.76478       91.94037
C         55.41715       91.79441       90.20868
C         56.33066       90.96738       89.26197
C         54.46595       92.71571       89.42481
C         55.56620       90.11686       88.24442
H         57.79232       93.35532       89.92891
H         55.51161       93.14519       91.89929
H         54.78590       91.08328       90.78844
H         56.94560       90.27685       89.87827
H         57.01436       91.63177       88.69455
H         53.76979       92.13473       88.78642
H         53.84728       93.29264       90.13678
H         55.03134       93.42722       88.78617
H         56.28756       89.51058       87.65654
H         54.85659       89.43377       88.75600
H         55.01444       90.75675       87.52496
N         56.55920       91.10856       93.15442
C         57.30849       90.28969       94.09991
C         56.67812       88.90755       94.21658
O         55.68755       88.63432       93.55462
C         57.34111       91.00640       95.46294
O         56.04637       91.16840       95.97084
H         55.55226       91.21979       93.31416
H         58.36240       90.16965       93.76830
H         57.81506       92.00465       95.32721
H         57.95626       90.42432       96.18362
H         56.15120       91.57877       96.86855
N         57.20422       87.98482       95.07189
C         56.61804       86.66555       95.29206
C         55.20046       86.78586       95.81532
O         54.30422       86.17805       95.24724
C         57.46347       85.87286       96.29542
H         58.05022       88.23861       95.60285
H         56.61535       86.09425       94.33681
H         57.02589       84.86272       96.44751
H         58.49596       85.75135       95.90499
H         57.51219       86.39348       97.27572
N         54.92765       87.57149       96.89431
C         53.58840       87.74931       97.44323
C         52.63420       88.31426       96.40702
O         51.59086       87.72012       96.17373
C         53.63747       88.69065       98.65599
H         55.71222       88.07603       97.33683
H         53.20448       86.76728       97.79958
H         52.62184       88.81372       99.08977
H         54.30241       88.26792       99.43873
H         54.02543       89.69237       98.37024
N         52.92528       89.47771       95.75975
C         52.00183       90.13753       94.83745
C         51.71048       89.31365       93.57986
O         50.81373       89.68629       92.83702
C         52.58595       91.51656       94.46291
C         51.60370       92.48933       93.80775
C         52.30088       93.79227       93.54617
O         53.21864       93.84630       92.74520
O         51.91755       94.90786       94.19208
H         53.81823       89.93860       95.98646
H         51.05496       90.29544       95.40000
H         53.46051       91.36146       93.80491
H         52.93134       92.01185       95.39837
H         50.75690       92.65722       94.50679
H         51.20453       92.10336       92.84827
N         52.42778       88.19539       93.26637
C         52.18681       87.38512       92.08910
H         51.34493       87.76467       91.47374
H         53.10259       87.36955       91.46118
H         51.95221       86.34580       92.40195
H         53.19959       87.89660       93.87045
Ca        53.28928       97.41174       93.04135
O         54.91638       96.75436       95.80406
H         55.63774       97.42309       95.91624
H         54.99385       96.16959       96.59927
O         55.76694       94.12085       94.49761
H         56.19662       94.17369       95.38737
H         55.09458       93.40151       94.59419

Ca 1.0



