%chk=holoCaM.loop2.water2.frame202.chk
%nprocshared=20
%mem=10GB
%nosave
#b3lyp/svp scf=(tight,noincore,xqc) Test 
#IOP(5/87=12) Density=Current Pop=(MK,readradii) iop(6/33=2) iop(6/42=6)

holoCaM.loop2.water2.frame202 

   -2  1 
C         26.36022       43.42135      106.94424
C         27.39047       42.50015      107.53210
O         28.42955       42.30995      106.91989
H         25.48338       43.53477      107.61704
H         26.81517       44.42791      106.81183
H         26.01766       43.04349      105.96133
N         27.19583       41.94697      108.75978
C         28.25949       41.27954      109.49897
C         28.47273       39.82387      109.08234
O         27.49460       39.10068      108.95645
C         27.96182       41.38539      111.00621
C         29.23032       41.17446      111.75627
O         29.32898       40.27226      112.56488
O         30.27636       41.98717      111.48731
H         26.32418       42.18424      109.25957
H         29.18733       41.86858      109.32535
H         27.15442       40.68007      111.30676
H         27.63145       42.41508      111.25184
N         29.73538       39.31853      108.90439
C         30.01623       37.94827      108.46716
C         30.83932       37.10169      109.45593
O         31.00909       35.92513      109.16540
C         30.77120       38.01822      107.13077
H         30.53291       39.94380      109.05940
H         29.06169       37.40589      108.29656
H         30.17800       38.58344      106.38091
H         31.74712       38.53635      107.26661
H         30.96691       37.00224      106.72598
N         31.42878       37.60607      110.58549
C         32.33566       36.80775      111.44300
C         32.10928       36.98397      112.95741
O         32.79498       36.31865      113.72114
C         33.81100       37.13076      111.06384
C         34.15565       38.58137      111.26824
O         33.25878       39.34288      111.90449
O         35.19452       39.05645      110.84091
H         31.33428       38.61450      110.75507
H         32.19094       35.72581      111.23079
H         33.92756       36.89584      109.98379
H         34.52151       36.49168      111.63216
N         31.18275       37.84463      113.46949
C         30.91348       38.00685      114.89717
C         32.00862       38.67049      115.73220
O         31.81812       38.75405      116.93736
H         30.58545       38.35864      112.82020
H         30.67868       37.00942      115.32460
H         30.00745       38.64238      115.01620
N         33.15606       39.18115      115.19678
C         34.22432       39.81118      115.98494
C         33.84580       41.14846      116.65466
O         34.71037       41.73455      117.29227
C         35.50350       39.97960      115.12200
C         35.40662       40.95259      113.97489
N         36.49071       41.18559      113.20339
O         34.36495       41.53840      113.73706
H         33.30650       39.07167      114.19338
H         34.51380       39.10028      116.78981
H         35.79077       38.98714      114.71073
H         36.33066       40.32134      115.78120
H         37.38229       40.70198      113.38300
H         36.44018       41.85945      112.42997
N         32.58845       41.67625      116.59678
C         32.17929       42.88971      117.29129
C         32.50722       44.19174      116.57936
O         32.08604       45.22077      117.08784
H         31.84192       41.14816      116.13900
H         32.56984       42.88803      118.33304
H         31.07016       42.87274      117.36537
N         33.22317       44.25048      115.41697
C         33.49230       45.50272      114.70421
C         33.05913       45.42819      113.24046
O         32.70268       44.36441      112.75586
C         35.00603       45.83308      114.77931
C         35.45778       46.07860      116.22010
O         35.77062       44.78558      114.23670
H         33.61438       43.38678      115.03076
H         32.92850       46.34197      115.16716
H         35.22159       46.77973      114.23170
H         35.75868       44.89520      113.25011
H         34.88646       46.92314      116.66187
H         35.30829       45.17290      116.84440
H         36.53708       46.34149      116.23436
N         33.12903       46.55069      112.46508
C         32.99483       46.55182      111.01191
C         34.35711       46.25928      110.40414
O         35.32981       46.91758      110.74192
C         32.40410       47.91478      110.49408
C         30.87059       47.93931      110.74342
C         32.70303       48.14143      108.99348
C         30.16043       49.21315      110.26907
H         33.46690       47.41896      112.90608
H         32.30468       45.74908      110.67310
H         32.89665       48.75534      111.03167
H         30.67543       47.81615      111.82933
H         30.40124       47.08597      110.20539
H         33.79762       48.17532      108.81464
H         32.24874       47.34330      108.37179
H         32.34317       49.13077      108.64946
H         29.07704       49.13783      110.50052
H         30.57808       50.10689      110.77547
H         30.23549       49.33968      109.16876
N         34.44445       45.34697      109.39371
C         35.63934       45.11851      108.58904
C         35.44338       45.79331      107.24520
O         34.39413       46.36380      107.02476
C         35.86058       43.60851      108.40564
C         36.07550       42.92659      109.71993
O         35.21924       41.97254      110.13155
O         37.02987       43.23043      110.41707
H         33.58349       44.88469      109.08055
H         36.52849       45.58529      109.06504
H         36.74731       43.42060      107.76473
H         34.97070       43.16631      107.90322
N         36.43663       45.83208      106.31275
C         36.27354       46.58810      105.07374
C         35.19773       46.00012      104.16040
O         34.31861       46.76642      103.78061
C         37.61964       46.79354      104.34740
C         37.46703       47.73628      103.17302
C         37.02065       49.05867      103.36941
C         37.76698       47.30433      101.87075
C         36.86816       49.92314      102.28350
C         37.61737       48.17599      100.78707
C         37.16624       49.48267      100.99296
H         37.34217       45.39205      106.52561
H         35.95323       47.61055      105.36946
H         38.04524       45.82986      104.01831
H         38.34687       47.24466      105.05659
H         36.78681       49.42648      104.36017
H         38.11350       46.29419      101.69293
H         36.51880       50.93518      102.44445
H         37.84975       47.83767       99.78620
H         37.04850       50.15500      100.15337
N         35.15448       44.68694      103.76058
C         34.10200       44.11835      102.91931
C         32.71029       44.47423      103.40556
O         31.85844       44.86694      102.62434
C         34.29911       42.59956      103.07279
C         35.79084       42.49326      103.24840
C         36.07600       43.65162      104.19870
H         34.26047       44.43437      101.86370
H         33.86144       42.24277      104.03435
H         33.86025       41.99077      102.25381
H         36.15767       41.50613      103.60334
H         36.25710       42.72117      102.26361
H         35.83477       43.39083      105.25281
H         37.14240       43.91058      104.10088
N         32.44886       44.35301      104.73212
C         31.16425       44.59689      105.37114
C         30.73835       46.03805      105.14399
O         29.64357       46.26817      104.64899
C         31.28388       44.26188      106.88025
C         31.70843       42.78409      107.10481
C         31.97270       42.44589      108.53904
O         31.76008       43.34035      109.51876
O         32.43290       41.35111      108.81675
H         33.24395       44.08396      105.32460
H         30.39599       43.91509      104.94276
H         30.31284       44.44789      107.38906
H         32.04582       44.93126      107.33096
H         32.65609       42.55534      106.58484
H         30.94121       42.09516      106.69670
N         31.58475       47.06078      105.43736
C         31.26931       48.45020      105.19640
H         30.39597       48.75543      105.80794
H         32.13994       49.08415      105.47544
H         31.05502       48.60966      104.11825
H         32.50912       46.84459      105.81443
Ca        32.41230       41.37307      111.74993
O         31.02240       42.45470      114.12566
H         31.10576       41.46984      114.06371
H         30.26138       42.60204      114.73937
O         29.77027       44.69611      111.65938
H         29.95611       44.69073      110.68774
H         28.83717       44.37546      111.72744

Ca 1.0



