%chk=holoCaM.loop4.water3.frame382.chk
%nprocshared=20
%mem=10GB
%nosave
#b3lyp/svp scf=(tight,noincore,xqc) Test 
#IOP(5/87=12) Density=Current Pop=(MK,readradii) iop(6/33=2) iop(6/42=6)

holoCaM.loop4.water3.frame382 

   -3  1 
C         86.16341       60.38377       76.19181
C         85.75239       58.99846       76.58187
O         84.77822       58.50055       76.03655
H         87.18956       60.35608       75.76982
H         85.47445       60.79001       75.41905
H         86.14087       61.04939       77.07830
N         86.44843       58.31162       77.53441
C         86.11030       56.94464       77.91181
C         86.89002       56.49257       79.14096
O         88.11303       56.50519       79.12364
C         86.37530       55.98149       76.73720
C         85.96666       54.59171       77.10333
O         86.77527       53.67844       77.06771
O         84.70423       54.36070       77.50275
H         87.23230       58.78707       78.00789
H         85.02609       56.91532       78.15720
H         87.45059       56.00474       76.45464
H         85.77934       56.27464       75.85036
N         86.21083       56.04699       80.23772
C         86.83322       55.58445       81.47537
C         86.51010       54.11318       81.79079
O         87.07403       53.60732       82.75135
C         86.40283       56.51501       82.66022
C         84.86101       56.49964       82.88628
C         86.91511       57.94648       82.41043
C         84.38732       57.28897       84.10777
H         85.18850       56.04481       80.19065
H         87.94012       55.63736       81.37778
H         86.89593       56.14006       83.58450
H         84.52210       55.45094       83.02455
H         84.33930       56.92337       82.00815
H         88.01558       57.93717       82.26331
H         86.43830       58.38813       81.50905
H         86.71040       58.60620       83.27717
H         83.28350       57.19137       84.19709
H         84.85495       56.89119       85.03186
H         84.61279       58.36982       84.00779
N         85.59247       53.38324       81.07966
C         85.17831       52.01756       81.44902
C         85.07238       51.02897       80.27022
O         84.84638       49.85434       80.52638
C         83.82683       52.08784       82.19905
C         82.70891       52.65933       81.35978
O         82.94729       53.00767       80.07944
O         81.60129       52.81994       81.84441
H         85.08600       53.86277       80.33082
H         85.92046       51.59060       82.15954
H         83.96181       52.73347       83.09503
H         83.53856       51.07386       82.55306
N         85.20626       51.41597       78.96863
C         85.17136       50.50954       77.82305
C         83.84233       49.82460       77.49570
O         83.84276       49.05454       76.54532
H         85.41439       52.39577       78.76789
H         85.94954       49.73078       77.97182
H         85.45086       51.09007       76.91629
N         82.68587       50.01793       78.19778
C         81.43934       49.28478       77.91126
C         80.72561       49.65474       76.59342
O         79.66392       49.09953       76.34475
C         80.45747       49.39426       79.10512
C         79.93467       50.77031       79.40059
O         80.28547       51.73294       78.74484
O         79.06253       50.94073       80.41105
H         82.71133       50.63927       79.01632
H         81.68781       48.20101       77.85742
H         80.96568       49.01601       80.01776
H         79.58370       48.73472       78.91059
N         81.24186       50.53087       75.68601
C         80.60848       50.83666       74.40560
C         79.46374       51.83881       74.46424
O         78.94675       52.16186       73.40310
H         82.17292       50.91802       75.84799
H         80.29169       49.89541       73.90640
H         81.37426       51.30930       73.75194
N         79.04824       52.42041       75.62519
C         78.05952       53.49906       75.69054
C         78.71085       54.75301       76.25261
O         79.89006       54.71944       76.57391
C         76.86000       53.08236       76.57053
C         76.03432       51.95895       75.93153
C         74.80417       51.66102       76.75262
N         74.90822       51.18831       78.01629
O         73.69778       51.84993       76.26848
H         79.48819       52.13458       76.50702
H         77.67937       53.76474       74.67912
H         76.17317       53.94651       76.69214
H         77.21973       52.78772       77.58093
H         76.64263       51.03701       75.82081
H         75.71336       52.29326       74.91924
H         75.83005       51.01377       78.44109
H         74.06160       50.99111       78.57077
N         77.99719       55.90538       76.40024
C         78.54567       57.12470       76.98270
C         77.82466       57.41839       78.28650
O         76.60436       57.51669       78.29261
C         78.51302       58.31022       75.96984
C         77.11025       58.67988       75.45966
C         79.18322       59.55696       76.57338
H         77.00695       55.91366       76.11406
H         79.61986       56.97968       77.22020
H         79.11693       58.00565       75.08613
H         77.18825       59.50492       74.71869
H         76.63465       57.82199       74.94409
H         76.45452       59.02562       76.28427
H         80.22059       59.32160       76.88992
H         79.23403       60.37484       75.82382
H         78.61364       59.92693       77.45172
N         78.53844       57.60220       79.43446
C         77.93257       57.96315       80.70961
C         78.01275       59.46684       80.87756
O         78.72516       60.11665       80.13313
C         78.65995       57.20078       81.84181
C         78.14627       57.45229       83.23388
N         76.88776       57.10246       83.58205
O         78.89022       57.94325       84.06958
H         79.56700       57.59958       79.37882
H         76.85362       57.69310       80.69467
H         79.74074       57.46856       81.80240
H         78.56564       56.11487       81.66197
H         76.25420       56.66493       82.89816
H         76.55382       57.25401       84.54503
N         77.22070       60.10291       81.77728
C         77.17080       61.56267       81.90189
C         78.47486       62.17565       82.38962
O         78.64994       63.37421       82.21734
C         75.95380       61.99688       82.75281
C         75.82277       61.20095       84.03558
C         74.77737       60.26530       84.15156
C         76.74080       61.33080       85.08832
C         74.66565       59.46084       85.28396
C         76.62128       60.52894       86.23058
C         75.58984       59.58652       86.32788
O         75.49903       58.80296       87.42105
H         76.57703       59.51696       82.32421
H         77.00921       61.97806       80.88091
H         75.06279       61.78143       82.12327
H         75.94911       63.09177       82.94367
H         74.06238       60.13418       83.34840
H         77.54891       62.04338       85.02233
H         73.86652       58.73228       85.34048
H         77.33751       60.63105       87.03583
H         74.81091       58.12739       87.51071
N         79.43608       61.43298       83.00027
C         80.73966       61.97580       83.36589
C         81.55955       62.16959       82.10153
O         82.09561       63.24516       81.87661
C         81.47375       61.01992       84.33748
C         80.69833       60.72433       85.64338
C         80.44958       61.93172       86.51149
O         80.96126       61.97749       87.75586
O         79.74731       62.85059       86.12273
H         79.24302       60.44217       83.20042
H         80.62917       62.94724       83.89001
H         82.46276       61.45646       84.60240
H         81.65793       60.04794       83.82941
H         81.29738       59.99528       86.23007
H         79.72504       60.24302       85.41714
N         81.66096       61.13964       81.21600
C         82.42509       61.17175       79.97090
C         81.94310       62.29665       79.06489
O         82.73598       63.16743       78.73558
C         82.28715       59.81332       79.24074
C         82.84681       58.62848       80.05821
C         82.49766       57.29756       79.45363
O         82.80521       56.16995       80.11614
O         81.88983       57.22129       78.40002
H         81.14050       60.28249       81.44914
H         83.50072       61.33662       80.20547
H         82.80694       59.84560       78.25734
H         81.20642       59.63334       79.05858
H         82.41275       58.61313       81.07565
H         83.94965       58.72333       80.15793
N         80.65376       62.33853       78.62577
C         80.11676       63.37238       77.76629
H         79.27484       63.87714       78.28596
H         80.87462       64.13511       77.49436
H         79.72939       62.90806       76.83468
H         80.00557       61.60129       78.91004
Ca        81.68411       54.08045       78.56966
O         82.44044       55.97086       75.91524
O         79.38369       54.49673       80.03674
H         81.81435       56.65236       75.56597
H         79.03395       53.59824       80.25253
H         83.19776       56.48585       76.28717
H         80.11362       54.64124       80.69115
O         82.74736       53.27793       75.77094
H         83.15596       52.77119       76.51698
H         83.37462       53.15648       75.01569

Ca 1.0



