%chk=holoCaM.loop2.water2.frame149.chk
%nprocshared=20
%mem=10GB
%nosave
#b3lyp/svp scf=(tight,noincore,xqc) Test 
#IOP(5/87=12) Density=Current Pop=(MK,readradii) iop(6/33=2) iop(6/42=6)

holoCaM.loop2.water2.frame149 

   -2  1 
C          3.24922       54.79783        5.37388
C          4.14465       53.61776        5.63546
O          5.21318       53.78031        6.20494
H          2.27262       54.64075        5.88214
H          3.69751       55.73773        5.75905
H          3.06829       54.90372        4.28345
N          3.73630       52.37689        5.26253
C          4.47892       51.14986        5.53864
C          5.79986       51.05979        4.78437
O          5.84090       51.34655        3.59624
C          3.61020       49.94093        5.18322
C          4.31315       48.64564        5.46649
O          4.47494       47.86662        4.54123
O          4.79522       48.30792        6.69159
H          2.81266       52.30149        4.80553
H          4.66077       51.07846        6.62808
H          3.33959       49.98691        4.10278
H          2.66887       49.96898        5.76336
N          6.89715       50.54766        5.41885
C          8.19712       50.32947        4.79347
C          8.65168       48.86234        4.83305
O          9.71966       48.58438        4.30537
C          9.22635       51.18349        5.54097
H          6.80364       50.28526        6.40683
H          8.17112       50.64929        3.72973
H          8.93187       52.25335        5.50549
H          9.28067       50.86879        6.60766
H         10.23455       51.07775        5.08849
N          7.94111       47.88626        5.47431
C          8.40749       46.51146        5.65579
C          7.41248       45.48049        5.10249
O          7.83673       44.65686        4.30349
C          8.82187       46.29873        7.13399
C          7.85034       46.78471        8.17047
O          8.20452       47.78165        9.00463
O          6.75530       46.27675        8.28479
H          7.06410       48.13493        5.93644
H          9.35539       46.33691        5.09781
H          9.74901       46.89280        7.29333
H          9.07798       45.23238        7.31387
N          6.08746       45.47445        5.43612
C          5.10526       44.53394        4.89042
C          4.31668       43.78370        5.95981
O          3.44108       43.00943        5.60132
H          5.73771       46.20065        6.06526
H          5.58693       43.78688        4.22273
H          4.37899       45.10996        4.27883
N          4.58299       43.94376        7.28602
C          3.93390       43.21689        8.37948
C          2.47694       43.61540        8.67228
O          1.91973       43.08342        9.62267
C          4.82092       43.33489        9.64446
C          5.00593       44.72651       10.20096
N          5.86606       44.91756       11.22600
O          4.40955       45.68176        9.72733
H          5.36853       44.54681        7.53429
H          3.94320       42.13368        8.12738
H          5.82949       42.95168        9.36973
H          4.42300       42.68253       10.44957
H          6.39564       44.12739       11.62154
H          6.02008       45.85617       11.61439
N          1.77606       44.48775        7.89233
C          0.36457       44.80439        8.09569
C          0.03496       45.72895        9.26286
O         -1.14255       46.01584        9.42371
H          2.21838       44.86360        7.04720
H         -0.21190       43.85767        8.18760
H         -0.00568       45.32645        7.18649
N          0.97919       46.25519       10.09708
C          0.66623       47.18371       11.19271
C          1.39677       48.50940       11.01962
O          2.17886       48.64998       10.09237
C          1.03336       46.53310       12.55227
C          0.07932       45.38494       12.88144
O          2.35256       46.04805       12.54142
H          1.96297       45.99629        9.95814
H         -0.41630       47.43768       11.20768
H          0.91150       47.25957       13.38641
H          2.95491       46.83642       12.54909
H          0.34138       44.95034       13.86944
H         -0.96318       45.76836       12.94028
H          0.12900       44.58798       12.11127
N          1.20228       49.52504       11.91738
C          1.92235       50.79191       11.86575
C          2.98261       50.77003       12.94446
O          2.67533       50.79120       14.12809
C          0.95883       52.01340       11.99262
C          0.10953       52.13908       10.70326
C          1.73231       53.32452       12.26428
C         -0.96593       53.22595       10.76795
H          0.57116       49.37031       12.71705
H          2.45206       50.89010       10.89336
H          0.29302       51.84073       12.86720
H         -0.40357       51.17427       10.50616
H          0.77860       52.35944        9.84303
H          1.04446       54.17850       12.41466
H          2.30886       53.25654       13.20909
H          2.42794       53.55589       11.43292
H         -1.66779       53.02023       11.60263
H         -0.52763       54.23644       10.89328
H         -1.53446       53.23468        9.81457
N          4.28304       50.70529       12.56030
C          5.42423       50.73363       13.46157
C          5.63860       52.14931       13.99802
O          4.91678       53.04918       13.60000
C          6.64085       50.21488       12.65725
C          6.41661       48.75830       12.30205
O          6.02770       48.31631       11.07469
O          6.52728       47.93307       13.19527
H          4.47371       50.60689       11.55274
H          5.24606       50.04509       14.31885
H          7.58242       50.28281       13.24306
H          6.76645       50.83003       11.74111
N          6.59881       52.42072       14.92820
C          6.85750       53.76615       15.45379
C          7.33155       54.74581       14.37478
O          6.70320       55.78925       14.26161
C          7.86206       53.72388       16.62696
C          8.27388       55.11363       17.07865
C          7.32716       56.04938       17.53928
C          9.62684       55.49107       17.01078
C          7.73226       57.33626       17.91503
C         10.02608       56.77455       17.39111
C          9.08018       57.69765       17.84079
H          7.15746       51.63188       15.29000
H          5.90917       54.16582       15.88209
H          8.76129       53.15544       16.31992
H          7.40438       53.17287       17.47694
H          6.27750       55.79197       17.59739
H         10.37503       54.79370       16.65622
H          7.00168       58.05687       18.26027
H         11.07004       57.05387       17.33177
H          9.39282       58.69316       18.12945
N          8.41007       54.52482       13.55093
C          8.89210       55.49224       12.56213
C          7.93736       55.70918       11.39411
O          8.28196       56.46155       10.49277
C         10.23250       54.90010       12.11407
C          9.97439       53.41583       12.22141
C          9.22745       53.32936       13.54685
H          9.08805       56.48456       13.02470
H         10.61197       55.26040       11.13371
H         10.99459       55.14213       12.88978
H          9.27324       53.13678       11.40200
H         10.87190       52.76551       12.15976
H          8.65007       52.38794       13.54163
H          9.92556       53.37006       14.40933
N          6.70624       55.13825       11.36700
C          5.71354       55.35224       10.33299
C          4.64458       56.26343       10.90190
O          4.37067       57.29217       10.30103
C          5.18059       53.98437        9.88698
C          6.34490       53.12701        9.36424
C          5.93228       51.74159        9.03033
O          4.64839       51.35384        9.14375
O          6.78548       50.94305        8.68573
H          6.41820       54.51811       12.12770
H          6.15126       55.85666        9.44173
H          4.40658       54.10484        9.09733
H          4.71925       53.46800       10.75832
H          7.12421       53.02971       10.14808
H          6.79757       53.60052        8.46695
N          4.07391       55.99915       12.11222
C          3.17081       56.90240       12.79232
H          2.22312       56.37758       13.02483
H          3.64250       57.22456       13.74677
H          2.94879       57.81001       12.19489
H          4.33209       55.14682       12.61901
Ca         5.27210       48.70825        8.91831
O          2.02858       50.64079        8.12294
H          1.20852       50.52929        7.58039
H          2.27016       51.59438        8.01877
O          2.48362       47.26774        7.51170
H          2.38015       47.06882        6.54765
H          1.83758       47.99504        7.67534

Ca 1.0



