%chk=holoCaM.loop2.water2.frame331.chk
%nprocshared=20
%mem=10GB
%nosave
#b3lyp/svp scf=(tight,noincore,xqc) Test 
#IOP(5/87=12) Density=Current Pop=(MK,readradii) iop(6/33=2) iop(6/42=6)

holoCaM.loop2.water2.frame331 

   -2  1 
C         10.45693       40.67870      -13.04796
C          9.96548       39.65887      -14.04697
O          9.01655       38.94553      -13.76434
H         11.35294       41.21888      -13.42679
H          9.67486       41.44246      -12.84080
H         10.73214       40.17520      -12.10202
N         10.56056       39.57595      -15.26467
C         10.09009       38.75296      -16.37571
C         10.60786       37.32031      -16.33029
O         11.73673       37.10446      -15.91336
C         10.68156       39.37559      -17.65085
C         10.08641       38.88563      -18.92418
O         10.70144       39.08616      -19.96008
O          8.89469       38.22574      -18.88007
H         11.30708       40.26139      -15.45664
H          8.97798       38.79749      -16.42923
H         11.77777       39.18855      -17.63545
H         10.52570       40.46902      -17.64779
N          9.88054       36.31499      -16.89481
C         10.34525       34.94280      -17.04124
C          9.96434       34.30348      -18.39439
O         10.20528       33.11629      -18.55944
C          9.82484       34.16153      -15.84100
H          8.92808       36.52217      -17.19075
H         11.45265       34.90493      -16.98856
H         10.22104       34.64824      -14.91890
H          8.71680       34.17308      -15.81419
H         10.18852       33.11500      -15.85710
N          9.38649       35.01885      -19.40632
C          9.04429       34.48639      -20.72806
C          9.57018       35.33971      -21.90587
O          9.79340       34.78313      -22.97324
C          7.51520       34.28208      -20.83806
C          6.68158       35.45019      -20.39145
O          6.95834       36.56291      -20.74707
O          5.64420       35.28889      -19.55402
H          9.14767       35.98534      -19.22497
H          9.50002       33.48073      -20.85546
H          7.23511       33.44077      -20.17822
H          7.25366       34.00766      -21.88356
N          9.73211       36.69135      -21.80683
C         10.15359       37.57500      -22.89464
C          9.01069       38.03065      -23.80664
O          9.28049       38.46417      -24.91331
H          9.50242       37.13444      -20.92388
H         10.97203       37.10974      -23.47975
H         10.61480       38.48753      -22.45732
N          7.71571       37.96363      -23.39907
C          6.51387       38.22647      -24.19011
C          6.11423       39.71291      -24.32608
O          4.99740       39.97123      -24.75547
C          5.34244       37.39141      -23.61662
C          4.80965       37.81454      -22.30728
N          3.76001       37.14217      -21.82082
O          5.32934       38.70387      -21.65628
H          7.57608       37.59168      -22.48238
H          6.64697       37.77091      -25.18806
H          5.66103       36.34203      -23.44250
H          4.49713       37.37549      -24.33561
H          3.30657       36.38232      -22.34513
H          3.43097       37.37174      -20.90572
N          6.95814       40.73826      -23.99715
C          6.63465       42.16849      -24.11536
C          5.67376       42.72776      -23.06498
O          5.44615       43.93146      -23.04832
H          7.91824       40.50451      -23.71821
H          6.23379       42.38408      -25.12910
H          7.58531       42.72614      -23.98613
N          5.07210       41.90329      -22.17205
C          4.12259       42.28598      -21.13372
C          4.53696       41.78333      -19.75716
O          5.25226       40.80318      -19.65435
C          2.72032       41.68736      -21.46364
C          2.01940       42.52994      -22.50767
O          2.78073       40.38583      -21.98077
H          5.27313       40.91602      -22.26315
H          4.03220       43.38918      -21.04530
H          2.09687       41.67386      -20.54179
H          3.38977       39.88573      -21.40115
H          1.96390       43.58689      -22.17896
H          2.57773       42.47065      -23.46455
H          0.99061       42.13416      -22.64469
N          3.96212       42.34831      -18.65212
C          3.99227       41.77892      -17.30880
C          2.78553       40.86184      -17.17218
O          1.72482       41.12723      -17.72126
C          4.09900       42.89743      -16.19287
C          5.58803       43.20066      -15.88895
C          3.40681       42.52403      -14.87221
C          5.89122       44.30821      -14.85863
H          3.30170       43.12192      -18.80905
H          4.86402       41.10170      -17.21422
H          3.57455       43.80585      -16.55587
H          6.09244       43.46999      -16.83694
H          6.03187       42.26503      -15.47979
H          3.43865       43.39563      -14.18815
H          2.33406       42.31206      -15.04822
H          3.89400       41.65775      -14.37646
H          5.54298       45.30608      -15.19749
H          5.46880       44.11022      -13.85092
H          6.99235       44.34211      -14.71852
N          2.94116       39.69896      -16.49151
C          1.94028       38.64998      -16.37672
C          1.59087       38.44758      -14.94288
O          2.34615       38.88907      -14.12845
C          2.54264       37.37471      -16.96791
C          3.01315       37.66270      -18.34274
O          4.32639       37.97804      -18.60866
O          2.16618       37.63936      -19.21565
H          3.85038       39.52005      -16.06178
H          1.00865       38.93246      -16.90306
H          1.78503       36.56281      -16.98068
H          3.42611       37.04519      -16.40212
N          0.44093       37.84743      -14.55433
C         -0.00947       37.73275      -13.16701
C          1.02104       37.04713      -12.26615
O          1.29640       37.62652      -11.22172
C         -1.39733       37.04954      -13.14049
C         -2.01629       36.98447      -11.76292
C         -2.63881       38.11194      -11.20394
C         -1.97145       35.79043      -11.02147
C         -3.15514       38.05837       -9.89959
C         -2.50092       35.73820       -9.72803
C         -3.07331       36.87604       -9.16015
H         -0.17965       37.51494      -15.30064
H         -0.15823       38.76418      -12.76090
H         -1.31407       36.02968      -13.54479
H         -2.07168       37.61070      -13.82676
H         -2.71874       39.02187      -11.78637
H         -1.50840       34.90496      -11.43523
H         -3.61637       38.92717       -9.44905
H         -2.45818       34.81976       -9.15745
H         -3.45717       36.83763       -8.14799
N          1.65415       35.85585      -12.54309
C          2.67710       35.32767      -11.65097
C          3.87509       36.29162      -11.50883
O          4.54589       36.25945      -10.48921
C          3.08260       33.96281      -12.23717
C          2.07460       33.67964      -13.34809
C          1.46569       35.03035      -13.72028
H          2.20759       35.17999      -10.65850
H          4.09247       33.96900      -12.69281
H          3.04997       33.16894      -11.45244
H          2.50787       33.14586      -14.22210
H          1.27888       33.03566      -12.90919
H          1.99752       35.48590      -14.58182
H          0.40821       34.86285      -13.99586
N          4.20064       37.16621      -12.50457
C          5.30155       38.13703      -12.43879
C          4.93253       39.30011      -11.50589
O          5.72125       39.69373      -10.66045
C          5.65551       38.64409      -13.85616
C          5.93556       37.46834      -14.82233
C          6.32882       37.91033      -16.17327
O          6.18248       39.18570      -16.53187
O          6.73628       37.09291      -16.97573
H          3.64925       37.11053      -13.36725
H          6.22216       37.62787      -12.08576
H          6.56634       39.27891      -13.80606
H          4.84857       39.28138      -14.24171
H          5.04556       36.83010      -14.96275
H          6.76231       36.84696      -14.43444
N          3.70117       39.86385      -11.61087
C          3.09060       40.84981      -10.76164
H          2.07786       40.47104      -10.47905
H          3.67774       41.01585       -9.84596
H          2.93646       41.79024      -11.33365
H          3.08644       39.51375      -12.30507
Ca         6.57762       38.56853      -19.13892
O          8.02290       39.96741      -21.23045
H          8.30422       40.90713      -21.12940
H          8.86328       39.46839      -21.16387
O          7.79270       40.91389      -18.13275
H          7.50739       40.82253      -17.19811
H          8.36239       41.71379      -18.08247

Ca 1.0



