%chk=holoCaM.loop2.water1.frame263.chk
%nprocshared=20
%mem=10GB
%nosave
#b3lyp/svp scf=(tight,noincore,xqc) Test 
#IOP(5/87=12) Density=Current Pop=(MK,readradii) iop(6/33=2) iop(6/42=6)

holoCaM.loop2.water1.frame263 

   -2  1 
C         45.44307        5.85660       56.43495
C         44.81042        5.31701       55.18556
O         43.59445        5.33338       55.07374
H         46.11350        6.70292       56.16840
H         44.67185        6.23460       57.13987
H         46.03904        5.06544       56.93299
N         45.59598        4.86705       54.17016
C         45.06381        4.47631       52.86958
C         44.29723        3.16018       52.93622
O         44.80082        2.21331       53.52430
C         46.20748        4.36774       51.83397
C         45.72231        4.55204       50.41509
O         44.42938        4.85527       50.17341
O         46.52661        4.55492       49.49809
H         46.61916        4.90679       54.30058
H         44.41336        5.31271       52.53515
H         46.76818        3.41658       51.96786
H         46.91506        5.20982       51.99443
N         43.10669        3.01244       52.28763
C         42.32350        1.78038       52.27311
C         42.21868        1.16713       50.87749
O         41.53484        0.16029       50.74800
C         40.91534        2.09829       52.79126
H         42.74007        3.80723       51.75229
H         42.77541        1.01376       52.93919
H         40.41636        2.83573       52.12392
H         40.29232        1.17859       52.82645
H         40.96909        2.52305       53.81513
N         42.85774        1.69435       49.78927
C         42.64041        1.19011       48.42916
C         43.68480        1.64323       47.38654
O         43.49135        1.32549       46.22056
C         41.19351        1.53819       47.99440
C         40.88470        2.99762       48.16093
O         41.53029        3.83190       47.55961
O         39.90349        3.39271       48.99483
H         43.44746        2.51770       49.92821
H         42.73483        0.08144       48.42348
H         40.47428        0.97337       48.62296
H         41.01541        1.22699       46.94275
N         44.85490        2.27220       47.71380
C         45.91892        2.54986       46.75402
C         45.64282        3.64882       45.74310
O         46.53768        3.92001       44.95429
H         45.08341        2.46259       48.69366
H         46.18414        1.61034       46.22231
H         46.81963        2.87316       47.32033
N         44.46849        4.33978       45.69332
C         44.22360        5.41848       44.73267
C         45.06918        6.68406       44.97944
O         44.93996        7.61012       44.19021
C         42.70616        5.72701       44.61739
C         41.99097        6.01904       45.93667
N         40.58403        6.33363       45.72492
O         42.60434        7.04316       46.63421
H         43.71279        4.06917       46.33178
H         44.50211        5.05155       43.71896
H         42.20980        4.82764       44.19124
H         42.54862        6.56315       43.90162
H         40.11434        5.49248       45.32013
H         40.14713        6.50437       46.65848
N         45.99200        6.79003       45.98743
C         46.89316        7.93450       46.12953
C         46.25184        9.20784       46.66208
O         46.95369       10.20305       46.76911
H         46.14255        6.00265       46.63028
H         47.37935        8.13310       45.14857
H         47.69960        7.66770       46.84536
N         44.94200        9.25497       47.02427
C         44.25024       10.43906       47.52187
C         43.55264       10.13836       48.84075
O         42.82424        9.15963       48.91156
C         43.18211       10.89313       46.49371
C         43.81392       11.33956       45.17539
O         42.26392        9.86247       46.22400
H         44.38775        8.40832       46.91842
H         44.94814       11.29499       47.65854
H         42.65025       11.78688       46.90235
H         41.48472        9.99204       46.82552
H         44.35769       10.50042       44.69305
H         43.01917       11.68954       44.48255
H         44.52022       12.17834       45.35229
N         43.64183       10.99699       49.89814
C         42.79858       10.86537       51.08924
C         41.32439       10.86966       50.68658
O         40.87224       11.80051       50.03686
C         43.11016       11.99259       52.14223
C         44.41258       11.61721       52.90528
C         41.95069       12.20048       53.14344
C         44.83362       12.60833       53.99543
H         44.26212       11.81706       49.81609
H         43.00196        9.89461       51.58422
H         43.22759       12.96521       51.61497
H         45.24694       11.52190       52.17944
H         44.27174       10.62967       53.40151
H         42.15624       13.03763       53.83888
H         41.01966       12.50213       52.62016
H         41.76661       11.27791       53.72107
H         44.07935       12.66736       54.80786
H         45.77411       12.25466       54.46802
H         44.99921       13.61645       53.56493
N         40.51048        9.87738       51.15478
C         39.05776        9.86233       51.01967
C         38.45523       10.28102       52.35716
O         39.19812       10.57073       53.27468
C         38.56773        8.46315       50.59326
C         39.11410        8.04219       49.25745
O         40.43605        7.85974       49.09046
O         38.35670        7.83033       48.32426
H         40.91953        9.15584       51.75696
H         38.72678       10.61157       50.26862
H         37.45873        8.47096       50.52998
H         38.86103        7.70616       51.35227
N         37.10580       10.41079       52.51750
C         36.52952       11.00685       53.72351
C         36.86533       10.23899       55.00933
O         37.49702       10.86066       55.85842
C         35.02718       11.30139       53.50936
C         34.37955       11.97131       54.69754
C         34.88331       13.18228       55.20782
C         33.24732       11.39432       55.29769
C         34.26984       13.79607       56.30274
C         32.63141       12.01751       56.38671
C         33.14353       13.21579       56.89039
H         36.48776       10.17795       51.72949
H         37.00015       12.00940       53.82625
H         34.47392       10.38867       53.23269
H         34.93588       11.98496       52.63740
H         35.75003       13.65441       54.76457
H         32.83508       10.46722       54.91884
H         34.66667       14.72432       56.69291
H         31.75536       11.57155       56.83894
H         32.66639       13.69621       57.73429
N         36.53553        8.93314       55.26929
C         36.93412        8.21592       56.48024
C         38.41494        8.32678       56.79539
O         38.77583        8.51390       57.94642
C         36.61967        6.75122       56.15224
C         35.40131        6.88967       55.28179
C         35.79298        8.05864       54.37963
H         36.31611        8.56813       57.33786
H         37.41521        6.32080       55.50027
H         36.50702        6.09775       57.04428
H         35.09118        5.96945       54.74360
H         34.56454        7.21642       55.94281
H         36.45817        7.75336       53.54274
H         34.85128        8.48586       54.00505
N         39.32147        8.22132       55.78404
C         40.76892        8.24037       55.96896
C         41.19458        9.49856       56.70621
O         41.86443        9.39252       57.72494
C         41.50999        8.13375       54.61076
C         41.09625        6.89697       53.77630
C         41.86360        6.75139       52.49127
O         42.80551        7.47937       52.22314
O         41.47816        5.81868       51.60284
H         38.94197        8.13563       54.83474
H         41.06503        7.35291       56.57168
H         42.60237        8.08836       54.81658
H         41.31015        9.04075       54.00923
H         40.03403        6.97789       53.48112
H         41.21496        5.96694       54.36864
N         40.79838       10.72590       56.27395
C         41.14210       11.94732       56.96653
H         42.24277       12.08862       56.96545
H         40.66918       12.81462       56.45697
H         40.76816       11.90882       58.01213
H         40.20210       10.79796       55.44202
Ca        43.63183        5.96630       48.37113
O         46.16768        7.83997       49.50583
H         46.48129        7.08801       48.94434
H         45.61279        7.41441       50.20558

Ca 1.0



