%Nproc=28
%chk=holo8.1.chk
%mem=80GB
%NoSave
#MP2(semidirect)/Gen scf=(tight,noincore) Test
#IOP(5/87=12) Density=Current Pop=(MK,readradii) iop(6/33=2) iop(6/42=6)

holo_loop_3_model_8.1 

   0   1
   C     30.80900000    23.69700000    43.02400000
   C     32.12500000    24.22600000    43.58700000
   C     32.02700000    25.26900000    44.69100000
   O     30.96800000    25.54900000    45.25000000
   O     33.19500000    25.85600000    45.08000000
   H     30.97400000    23.26900000    42.03500000
   H     30.09100000    24.51300000    42.94100000
   H     30.42100000    22.93400000    43.69800000
   H     32.76700000    24.67400000    42.82800000
   H     32.64700000    23.38300000    44.03800000
   H     33.84100000    25.37800000    44.55400000
   C     28.77300000    28.70700000    45.76800000
   C     28.25000000    28.39300000    47.16700000
   C     28.86700000    27.33000000    48.06400000
   O     28.37400000    27.11100000    49.19100000
   O     29.83800000    26.69700000    47.59500000
   H     28.61300000    27.86300000    45.09700000
   H     29.84400000    28.90800000    45.80500000
   H     28.23900000    29.58900000    45.41500000
   H     27.18000000    28.21800000    47.05100000
   H     28.23800000    29.28900000    47.78900000
   C     25.53900000    20.19800000    44.51200000
   C     26.88900000    20.88700000    44.69400000
   C     26.87100000    21.84200000    45.88400000
   C     28.14900000    22.61300000    46.18500000
   O     28.07500000    23.86000000    46.15000000
   O     29.07200000    21.97900000    46.74000000
   H     25.30000000    19.62300000    45.40600000
   H     25.58400000    19.52800000    43.65400000
   H     24.76900000    20.95200000    44.34600000
   H     27.17400000    21.34100000    43.74500000
   H     27.66900000    20.13000000    44.77100000
   H     26.52600000    21.35600000    46.79700000
   H     26.09000000    22.59100000    45.75700000
  Ca     30.46600000    24.12400000    47.47300000
   O     30.27300000    21.74900000    49.01200000
   H     29.46700000    21.53400000    48.54200000
   H     30.03500000    21.68900000    49.93700000

C O H 0
aug-cc-pVTZ 
****
@/home/pzhang5/ca_ccpvtz_basisset.gbs/N

Ca 1.70




