%Nproc=28
%chk=holo4.0.chk
%mem=80GB
%NoSave
#MP2(semidirect)/Gen scf=(tight,noincore) Test
#IOP(5/87=12) Density=Current Pop=(MK,readradii) iop(6/33=2) iop(6/42=6)

holo_loop_3_model_4.0 

   0   1
   C     26.40500000    32.45800000    39.41900000
   C     27.78800000    32.16500000    39.99400000
   C     27.96600000    32.10700000    41.50400000
   O     27.04300000    32.06600000    42.31400000
   O     29.24400000    32.32700000    41.92800000
   H     26.37700000    32.25800000    38.34800000
   H     26.15100000    33.50800000    39.56700000
   H     25.70000000    31.82200000    39.95400000
   H     28.51800000    32.84300000    39.55200000
   H     28.03200000    31.16500000    39.63500000
   H     29.75600000    32.65700000    41.18500000
   C     23.81300000    36.07600000    43.33900000
   C     22.98500000    35.44100000    44.45100000
   C     23.14500000    33.93300000    44.59000000
   O     24.02100000    33.32100000    43.94200000
   O     22.48700000    33.36700000    45.48900000
   H     23.58200000    35.58300000    42.39500000
   H     24.87300000    35.96000000    43.56600000
   H     23.57500000    37.13600000    43.25600000
   H     21.96000000    35.70700000    44.19000000
   H     23.19000000    35.93400000    45.40200000
   C     20.02000000    29.89900000    38.18800000
   C     21.31600000    30.07500000    38.97300000
   C     21.08200000    30.80600000    40.29300000
   C     22.34100000    30.88400000    41.14400000
   O     23.23000000    31.73200000    40.91200000
   O     22.48900000    29.97600000    41.99100000
   H     19.48000000    29.06800000    38.64200000
   H     20.27100000    29.70700000    37.14500000
   H     19.36400000    30.76900000    38.23100000
   H     22.06400000    30.57800000    38.36100000
   H     21.69900000    29.08700000    39.22800000
   H     20.37100000    30.34100000    40.97500000
   H     20.71300000    31.82700000    40.19500000
  Ca     24.67900000    31.00800000    43.07100000
   O     24.04800000    28.48500000    43.63900000
   H     23.70300000    27.90300000    44.31700000
   H     23.30100000    28.65300000    43.06400000

C O H 0
aug-cc-pVTZ 
****
@/home/pzhang5/ca_ccpvtz_basisset.gbs/N

Ca 1.70




