%chk=CaMKII_loop3_107.0.chk
%nprocshared=48
%mem=10GB
%nosave
#b3lyp/svp scf=(tight,noincore) Test 
#IOP(5/87=12) Density=Current Pop=(MK,readradii) iop(6/33=2) iop(6/42=6)

CaMKII_loop3_107.0 

   0   1
   C     33.94000000    37.60000000     0.43000000
   C     34.41000000    36.17000000     0.62000000
   O     35.47000000    35.88000000     0.08000000
   H     32.99300000    37.74300000     0.95000000
   H     34.68400000    38.28500000     0.83700000
   H     33.80400000    37.80000000    -0.63300000
   N     33.62000000    35.23000000     1.14000000
   C     33.97000000    33.84000000     1.31000000
   C     33.55000000    32.89000000     0.19000000
   O     32.51000000    32.23000000     0.24000000
   C     33.42000000    33.42000000     2.67000000
   C     33.79000000    31.98000000     3.04000000
   O     33.08000000    31.33000000     3.83000000
   O     34.82000000    31.48000000     2.54000000
   H     32.68000000    35.51000000     1.41000000
   H     35.04000000    33.65000000     1.34000000
   H     32.35000000    33.53000000     2.84000000
   H     33.88000000    34.09000000     3.39000000
   N     34.41000000    32.64000000    -0.80000000
   C     33.96000000    32.33000000    -2.14000000
   C     33.28000000    30.97000000    -2.27000000
   O     32.42000000    30.72000000    -3.10000000
   C     35.15000000    32.26000000    -3.10000000
   C     34.89000000    32.36000000    -4.60000000
   C     36.18000000    32.64000000    -5.36000000
   C     35.84000000    32.60000000    -6.84000000
   N     36.96000000    33.02000000    -7.70000000
   H     35.33000000    33.04000000    -0.76000000
   H     33.23000000    33.06000000    -2.48000000
   H     35.77000000    31.39000000    -2.89000000
   H     35.79000000    33.09000000    -2.81000000
   H     34.10000000    33.10000000    -4.72000000
   H     34.51000000    31.40000000    -4.96000000
   H     36.92000000    31.89000000    -5.08000000
   H     36.47000000    33.65000000    -5.07000000
   H     34.97000000    33.24000000    -6.95000000
   H     35.63000000    31.55000000    -7.06000000
   H     37.45000000    33.81000000    -7.33000000
   H     37.65000000    32.29000000    -7.82000000
   H     36.65000000    33.16000000    -8.65000000
   N     33.82000000    30.05000000    -1.47000000
   C     33.35000000    28.67000000    -1.47000000
   C     32.55000000    28.25000000    -0.24000000
   O     31.84000000    27.25000000    -0.30000000
   C     34.64000000    27.86000000    -1.58000000
   C     35.69000000    27.90000000    -0.49000000
   O     35.52000000    28.70000000     0.46000000
   O     36.77000000    27.29000000    -0.65000000
   H     34.63000000    30.37000000    -0.96000000
   H     32.75000000    28.51000000    -2.36000000
   H     34.96000000    28.05000000    -2.61000000
   H     34.24000000    26.85000000    -1.55000000
   N     32.56000000    29.14000000     0.75000000
   C     31.65000000    29.07000000     1.87000000
   C     32.12000000    28.27000000     3.08000000
   O     31.35000000    27.86000000     3.94000000
   H     33.14000000    29.95000000     0.60000000
   H     30.78000000    28.55000000     1.46000000
   H     31.43000000    30.05000000     2.29000000
   N     33.44000000    28.06000000     3.10000000
   C     34.13000000    27.25000000     4.08000000
   C     34.37000000    27.93000000     5.42000000
   O     34.80000000    27.31000000     6.39000000
   C     35.36000000    26.55000000     3.50000000
   C     36.60000000    27.40000000     3.72000000
   N     37.57000000    26.84000000     4.45000000
   O     36.75000000    28.58000000     3.41000000
   H     33.97000000    28.46000000     2.34000000
   H     33.43000000    26.44000000     4.26000000
   H     35.07000000    26.27000000     2.49000000
   H     35.49000000    25.62000000     4.06000000
   H     37.39000000    25.89000000     4.72000000
   H     38.17000000    27.52000000     4.89000000
   N     34.03000000    29.22000000     5.49000000
   C     33.89000000    30.00000000     6.70000000
   C     35.04000000    30.96000000     6.99000000
   O     35.14000000    31.46000000     8.10000000
   H     33.69000000    29.69000000     4.67000000
   H     33.81000000    29.34000000     7.57000000
   H     32.93000000    30.52000000     6.64000000
   N     36.01000000    31.10000000     6.08000000
   C     37.06000000    32.09000000     6.21000000
   C     37.53000000    32.61000000     4.86000000
   O     37.20000000    32.02000000     3.83000000
   C     38.24000000    31.51000000     6.99000000
   C     38.59000000    30.05000000     6.83000000
   C     38.01000000    29.11000000     7.70000000
   C     39.57000000    29.58000000     5.95000000
   C     38.53000000    27.81000000     7.75000000
   C     40.13000000    28.30000000     6.01000000
   C     39.58000000    27.38000000     6.93000000
   O     40.02000000    26.09000000     7.00000000
   H     35.87000000    30.65000000     5.19000000
   H     36.71000000    32.97000000     6.74000000
   H     38.27000000    31.77000000     8.04000000
   H     39.14000000    32.08000000     6.78000000
   H     37.33000000    29.40000000     8.48000000
   H     40.03000000    30.23000000     5.22000000
   H     37.96000000    27.13000000     8.37000000
   H     40.77000000    27.97000000     5.20000000
   H     39.41000000    25.57000000     7.53000000
   N     38.29000000    33.70000000     4.69000000
   C     38.61000000    34.36000000     3.45000000
   C     40.08000000    34.08000000     3.17000000
   O     40.83000000    34.08000000     4.14000000
   C     38.29000000    35.85000000     3.47000000
   C     36.83000000    36.12000000     3.84000000
   C     38.61000000    36.52000000     2.14000000
   C     36.71000000    37.46000000     4.56000000
   H     38.37000000    34.31000000     5.50000000
   H     38.05000000    33.90000000     2.64000000
   H     38.93000000    36.30000000     4.24000000
   H     36.43000000    35.33000000     4.48000000
   H     36.23000000    36.16000000     2.93000000
   H     38.43000000    35.86000000     1.30000000
   H     37.95000000    37.38000000     2.18000000
   H     39.64000000    36.89000000     2.23000000
   H     37.32000000    37.46000000     5.47000000
   H     37.15000000    38.23000000     3.93000000
   H     35.65000000    37.58000000     4.80000000
   N     40.54000000    33.93000000     1.92000000
   C     41.94000000    33.86000000     1.55000000
   C     42.28000000    34.97000000     0.57000000
   O     41.37000000    35.63000000     0.07000000
   C     42.32000000    32.46000000     1.08000000
   O     41.29000000    31.91000000     0.29000000
   H     39.87000000    33.89000000     1.17000000
   H     42.58000000    34.11000000     2.40000000
   H     42.48000000    31.82000000     1.95000000
   H     43.30000000    32.39000000     0.61000000
   H     41.57000000    31.06000000    -0.07000000
   N     43.55000000    35.26000000     0.25000000
   C     43.98000000    36.40000000    -0.54000000
   C     43.30000000    36.51000000    -1.89000000
   O     42.66000000    37.52000000    -2.18000000
   C     45.49000000    36.33000000    -0.71000000
   H     44.29000000    34.77000000     0.72000000
   H     43.71000000    37.37000000    -0.11000000
   H     45.99000000    36.00000000     0.21000000
   H     45.74000000    35.63000000    -1.51000000
   H     45.91000000    37.31000000    -0.92000000
   N     43.36000000    35.46000000    -2.72000000
   C     42.63000000    35.42000000    -3.97000000
   C     41.13000000    35.64000000    -3.83000000
   O     40.56000000    36.16000000    -4.79000000
   C     43.15000000    34.15000000    -4.63000000
   H     43.97000000    34.73000000    -2.38000000
   H     42.98000000    36.19000000    -4.65000000
   H     42.84000000    33.26000000    -4.08000000
   H     42.70000000    34.07000000    -5.62000000
   H     44.23000000    34.16000000    -4.82000000
   N     40.46000000    35.23000000    -2.75000000
   C     39.04000000    35.49000000    -2.59000000
   C     38.68000000    36.96000000    -2.39000000
   O     37.64000000    37.46000000    -2.80000000
   C     38.46000000    34.58000000    -1.51000000
   C     38.65000000    33.08000000    -1.65000000
   C     38.09000000    32.28000000    -0.48000000
   O     37.35000000    31.31000000    -0.73000000
   O     38.29000000    32.59000000     0.71000000
   H     40.83000000    34.80000000    -1.91000000
   H     38.63000000    35.17000000    -3.55000000
   H     37.38000000    34.78000000    -1.48000000
   H     38.77000000    34.86000000    -0.51000000
   H     39.73000000    32.90000000    -1.68000000
   H     38.31000000    32.80000000    -2.65000000
   N     39.58000000    37.71000000    -1.77000000
   C     39.36000000    39.13000000    -1.54000000
   H     38.39800000    39.27300000    -1.04800000
   H     40.15400000    39.52300000    -0.90500000
   H     39.36200000    39.65800000    -2.49400000
   H     40.40000000    37.23000000    -1.42000000
  Ca     37.05000000    30.53000000     1.69000000
   O     38.37000000    28.52000000     0.86000000
   H     37.88000000    27.93000000     0.29000000
   H     39.13000000    28.02000000     1.14000000

Ca 1.70



