%chk=CaMKII_loop3_94.0.chk
%nprocshared=48
%mem=10GB
%nosave
#b3lyp/svp scf=(tight,noincore) Test 
#IOP(5/87=12) Density=Current Pop=(MK,readradii) iop(6/33=2) iop(6/42=6)

CaMKII_loop3_94.0 

   0   1
   C     62.44000000    45.92000000    40.38000000
   C     61.56000000    45.49000000    41.55000000
   O     61.86000000    44.46000000    42.15000000
   H     63.41500000    45.44100000    40.46400000
   H     61.97000000    45.62300000    39.44300000
   H     62.56500000    47.00300000    40.39700000
   N     60.57000000    46.29000000    41.95000000
   C     59.94000000    46.09000000    43.24000000
   C     58.73000000    45.17000000    43.18000000
   O     57.61000000    45.65000000    43.02000000
   C     59.62000000    47.48000000    43.78000000
   C     59.21000000    47.44000000    45.25000000
   O     58.20000000    48.11000000    45.54000000
   O     59.70000000    46.60000000    46.03000000
   H     60.35000000    47.17000000    41.49000000
   H     60.67000000    45.52000000    43.82000000
   H     58.86000000    47.85000000    43.10000000
   H     60.53000000    48.08000000    43.79000000
   N     58.94000000    43.85000000    43.26000000
   C     58.00000000    42.84000000    42.79000000
   C     56.73000000    42.70000000    43.62000000
   O     55.75000000    42.15000000    43.13000000
   C     58.67000000    41.47000000    42.82000000
   C     59.94000000    41.48000000    41.97000000
   C     59.88000000    41.63000000    40.45000000
   C     61.28000000    41.66000000    39.84000000
   N     61.25000000    41.81000000    38.38000000
   H     59.87000000    43.47000000    43.31000000
   H     57.73000000    42.98000000    41.74000000
   H     58.01000000    40.63000000    42.63000000
   H     58.93000000    41.34000000    43.87000000
   H     60.37000000    40.50000000    42.21000000
   H     60.60000000    42.25000000    42.36000000
   H     59.35000000    42.56000000    40.26000000
   H     59.19000000    40.87000000    40.09000000
   H     61.77000000    40.71000000    40.08000000
   H     61.86000000    42.46000000    40.30000000
   H     62.06000000    41.58000000    37.82000000
   H     60.44000000    41.33000000    38.02000000
   H     61.17000000    42.79000000    38.13000000
   N     56.70000000    43.29000000    44.81000000
   C     55.57000000    43.14000000    45.71000000
   C     55.07000000    44.56000000    45.92000000
   O     54.06000000    44.79000000    46.58000000
   C     55.93000000    42.29000000    46.92000000
   C     57.15000000    42.91000000    47.59000000
   O     57.69000000    42.14000000    48.42000000
   O     57.70000000    43.99000000    47.31000000
   H     57.55000000    43.70000000    45.16000000
   H     54.72000000    42.64000000    45.24000000
   H     56.31000000    41.35000000    46.51000000
   H     55.11000000    42.18000000    47.63000000
   N     55.68000000    45.56000000    45.28000000
   C     55.30000000    46.95000000    45.29000000
   C     55.30000000    47.62000000    46.66000000
   O     54.79000000    48.73000000    46.79000000
   H     56.42000000    45.39000000    44.61000000
   H     54.28000000    47.04000000    44.92000000
   H     56.02000000    47.36000000    44.59000000
   N     55.91000000    47.04000000    47.69000000
   C     55.97000000    47.54000000    49.05000000
   C     57.03000000    48.62000000    49.28000000
   O     57.32000000    48.96000000    50.42000000
   C     56.07000000    46.40000000    50.07000000
   C     57.47000000    45.95000000    50.43000000
   N     57.72000000    45.49000000    51.66000000
   O     58.40000000    46.00000000    49.63000000
   H     56.31000000    46.14000000    47.48000000
   H     55.06000000    48.12000000    49.18000000
   H     55.52000000    45.57000000    49.62000000
   H     55.56000000    46.81000000    50.94000000
   H     56.91000000    45.52000000    52.26000000
   H     58.57000000    45.00000000    51.91000000
   N     57.41000000    49.37000000    48.24000000
   C     58.14000000    50.62000000    48.36000000
   C     59.64000000    50.52000000    48.59000000
   O     60.33000000    51.53000000    48.57000000
   H     57.40000000    48.92000000    47.34000000
   H     57.76000000    51.26000000    49.15000000
   H     58.06000000    51.15000000    47.41000000
   N     60.21000000    49.31000000    48.61000000
   C     61.64000000    49.15000000    48.68000000
   C     62.26000000    47.93000000    48.00000000
   O     61.88000000    46.78000000    48.19000000
   C     62.03000000    49.48000000    50.13000000
   C     61.65000000    48.40000000    51.11000000
   C     60.41000000    48.48000000    51.74000000
   C     62.52000000    47.33000000    51.40000000
   C     60.12000000    47.50000000    52.70000000
   C     62.25000000    46.41000000    52.41000000
   C     61.00000000    46.47000000    53.07000000
   O     60.78000000    45.62000000    54.11000000
   H     59.60000000    48.50000000    48.66000000
   H     62.06000000    50.00000000    48.14000000
   H     61.66000000    50.48000000    50.36000000
   H     63.11000000    49.48000000    50.14000000
   H     59.64000000    49.20000000    51.49000000
   H     63.44000000    47.19000000    50.85000000
   H     59.16000000    47.52000000    53.20000000
   H     63.03000000    45.73000000    52.73000000
   H     61.45000000    44.95000000    54.00000000
   N     63.33000000    48.07000000    47.22000000
   C     64.09000000    46.99000000    46.62000000
   C     64.85000000    46.30000000    47.74000000
   O     65.52000000    46.97000000    48.53000000
   C     65.11000000    47.50000000    45.60000000
   C     64.55000000    48.52000000    44.62000000
   C     65.59000000    46.35000000    44.73000000
   C     65.46000000    49.00000000    43.49000000
   H     63.78000000    48.95000000    47.03000000
   H     63.52000000    46.29000000    46.01000000
   H     65.92000000    48.00000000    46.15000000
   H     64.23000000    49.42000000    45.15000000
   H     63.67000000    48.09000000    44.14000000
   H     65.77000000    45.50000000    45.38000000
   H     64.82000000    45.98000000    44.05000000
   H     66.45000000    46.72000000    44.16000000
   H     65.60000000    48.19000000    42.77000000
   H     65.00000000    49.86000000    43.00000000
   H     66.43000000    49.25000000    43.90000000
   N     64.45000000    45.06000000    48.02000000
   C     65.33000000    44.07000000    48.60000000
   C     66.38000000    43.52000000    47.64000000
   O     66.33000000    43.64000000    46.42000000
   C     64.47000000    42.99000000    49.25000000
   O     63.86000000    42.23000000    48.22000000
   H     63.70000000    44.69000000    47.46000000
   H     65.92000000    44.55000000    49.39000000
   H     63.76000000    43.53000000    49.87000000
   H     65.10000000    42.31000000    49.83000000
   H     63.23000000    42.80000000    47.78000000
   N     67.41000000    42.82000000    48.12000000
   C     68.44000000    42.25000000    47.27000000
   C     67.96000000    41.08000000    46.42000000
   O     68.21000000    41.01000000    45.21000000
   C     69.64000000    41.77000000    48.08000000
   H     67.58000000    42.88000000    49.12000000
   H     68.75000000    42.99000000    46.54000000
   H     70.51000000    41.51000000    47.48000000
   H     69.86000000    42.53000000    48.84000000
   H     69.44000000    40.83000000    48.58000000
   N     67.19000000    40.16000000    46.99000000
   C     66.66000000    39.06000000    46.21000000
   C     65.73000000    39.50000000    45.09000000
   O     65.35000000    38.76000000    44.19000000
   C     66.05000000    38.12000000    47.25000000
   H     67.03000000    40.15000000    47.99000000
   H     67.49000000    38.52000000    45.76000000
   H     65.31000000    38.63000000    47.87000000
   H     65.49000000    37.38000000    46.69000000
   H     66.86000000    37.64000000    47.78000000
   N     65.26000000    40.75000000    45.02000000
   C     64.45000000    41.28000000    43.94000000
   C     65.27000000    41.81000000    42.77000000
   O     64.89000000    41.70000000    41.61000000
   C     63.56000000    42.41000000    44.45000000
   C     62.45000000    41.84000000    45.32000000
   C     61.62000000    42.93000000    45.99000000
   O     60.41000000    43.15000000    45.74000000
   O     62.18000000    43.65000000    46.84000000
   H     65.45000000    41.25000000    45.87000000
   H     63.80000000    40.54000000    43.45000000
   H     62.99000000    42.90000000    43.66000000
   H     64.23000000    43.10000000    44.95000000
   H     62.95000000    41.27000000    46.10000000
   H     61.82000000    41.23000000    44.67000000
   N     66.39000000    42.41000000    43.17000000
   C     67.37000000    43.01000000    42.29000000
   H     68.30100000    42.44600000    42.34500000
   H     66.99700000    42.99500000    41.26600000
   H     67.55100000    44.04000000    42.59600000
   H     66.54000000    42.50000000    44.17000000
  Ca     60.04000000    44.81000000    47.84000000
   O     61.16000000    44.99000000    50.28000000
   H     61.32000000    45.73000000    50.87000000
   H     61.49000000    44.23000000    50.76000000

Ca 1.70



