%chk=CaMKII_loop3_85.0.chk
%nprocshared=48
%mem=10GB
%nosave
#b3lyp/svp scf=(tight,noincore) Test 
#IOP(5/87=12) Density=Current Pop=(MK,readradii) iop(6/33=2) iop(6/42=6)

CaMKII_loop3_85.0 

   0   1
   C     81.98000000    65.58000000    36.10000000
   C     81.52000000    65.35000000    37.53000000
   O     81.84000000    64.34000000    38.15000000
   H     83.00900000    65.23900000    35.99100000
   H     81.33900000    65.02300000    35.41700000
   H     81.92400000    66.64300000    35.86600000
   N     80.72000000    66.32000000    37.99000000
   C     80.03000000    66.23000000    39.26000000
   C     78.90000000    65.23000000    39.03000000
   O     77.91000000    65.35000000    38.30000000
   C     79.59000000    67.64000000    39.66000000
   C     78.96000000    67.69000000    41.04000000
   O     78.92000000    66.65000000    41.74000000
   O     78.51000000    68.79000000    41.41000000
   H     80.60000000    67.22000000    37.54000000
   H     80.68000000    65.82000000    40.03000000
   H     78.84000000    68.01000000    38.96000000
   H     80.41000000    68.36000000    39.62000000
   N     79.03000000    64.12000000    39.75000000
   C     78.28000000    62.89000000    39.58000000
   C     76.84000000    62.96000000    40.07000000
   O     75.88000000    62.56000000    39.41000000
   C     79.08000000    61.81000000    40.31000000
   C     78.55000000    60.45000000    39.84000000
   C     79.35000000    59.31000000    40.47000000
   C     79.01000000    59.33000000    41.96000000
   N     79.81000000    58.28000000    42.61000000
   H     79.81000000    64.13000000    40.39000000
   H     78.20000000    62.54000000    38.55000000
   H     78.78000000    61.95000000    41.35000000
   H     80.14000000    61.93000000    40.09000000
   H     78.62000000    60.34000000    38.76000000
   H     77.49000000    60.33000000    40.07000000
   H     80.39000000    59.50000000    40.23000000
   H     78.95000000    58.37000000    40.08000000
   H     77.93000000    59.22000000    42.10000000
   H     79.30000000    60.31000000    42.34000000
   H     80.79000000    58.32000000    42.39000000
   H     79.83000000    58.39000000    43.62000000
   H     79.36000000    57.39000000    42.46000000
   N     76.71000000    63.44000000    41.31000000
   C     75.42000000    63.84000000    41.84000000
   C     75.08000000    65.30000000    41.57000000
   O     73.98000000    65.72000000    41.91000000
   C     75.33000000    63.46000000    43.31000000
   C     76.36000000    64.02000000    44.28000000
   O     77.22000000    64.75000000    43.74000000
   O     76.27000000    63.73000000    45.49000000
   H     77.51000000    63.69000000    41.86000000
   H     74.60000000    63.30000000    41.35000000
   H     75.45000000    62.38000000    43.34000000
   H     74.33000000    63.72000000    43.67000000
   N     75.97000000    66.05000000    40.90000000
   C     75.60000000    67.38000000    40.45000000
   C     75.30000000    68.36000000    41.57000000
   O     74.75000000    69.44000000    41.36000000
   H     76.88000000    65.66000000    40.73000000
   H     74.70000000    67.37000000    39.83000000
   H     76.43000000    67.72000000    39.84000000
   N     75.81000000    68.13000000    42.79000000
   C     75.51000000    68.93000000    43.96000000
   C     76.21000000    70.27000000    44.15000000
   O     75.70000000    71.22000000    44.74000000
   C     75.80000000    68.08000000    45.18000000
   C     77.22000000    68.16000000    45.73000000
   N     77.55000000    68.84000000    46.83000000
   O     78.22000000    67.71000000    45.17000000
   H     76.36000000    67.28000000    42.84000000
   H     74.44000000    69.15000000    43.94000000
   H     75.60000000    67.03000000    44.97000000
   H     75.10000000    68.42000000    45.94000000
   H     76.96000000    69.45000000    47.37000000
   H     78.45000000    68.63000000    47.25000000
   N     77.39000000    70.35000000    43.52000000
   C     78.10000000    71.59000000    43.28000000
   C     79.61000000    71.40000000    43.19000000
   O     80.32000000    72.35000000    42.86000000
   H     77.65000000    69.61000000    42.89000000
   H     77.85000000    72.42000000    43.94000000
   H     77.75000000    71.89000000    42.30000000
   N     80.13000000    70.24000000    43.59000000
   C     81.55000000    69.95000000    43.71000000
   C     81.93000000    68.56000000    43.22000000
   O     81.21000000    67.60000000    43.48000000
   C     82.11000000    70.39000000    45.06000000
   C     81.44000000    69.92000000    46.32000000
   C     80.73000000    70.91000000    47.01000000
   C     81.46000000    68.58000000    46.73000000
   C     80.15000000    70.54000000    48.23000000
   C     80.80000000    68.21000000    47.91000000
   C     80.22000000    69.22000000    48.71000000
   O     79.54000000    68.75000000    49.80000000
   H     79.53000000    69.53000000    43.99000000
   H     82.09000000    70.67000000    43.11000000
   H     82.26000000    71.48000000    45.05000000
   H     83.17000000    70.12000000    45.06000000
   H     80.60000000    71.91000000    46.64000000
   H     82.02000000    67.88000000    46.12000000
   H     79.55000000    71.32000000    48.68000000
   H     80.76000000    67.15000000    48.10000000
   H     79.82000000    67.92000000    50.18000000
   N     83.13000000    68.41000000    42.65000000
   C     83.62000000    67.11000000    42.25000000
   C     84.58000000    66.54000000    43.27000000
   O     85.46000000    67.23000000    43.78000000
   C     84.34000000    67.24000000    40.91000000
   C     83.60000000    67.95000000    39.78000000
   C     85.00000000    65.91000000    40.54000000
   C     84.39000000    68.57000000    38.63000000
   H     83.71000000    69.21000000    42.44000000
   H     82.75000000    66.44000000    42.19000000
   H     85.16000000    67.91000000    41.17000000
   H     82.97000000    68.78000000    40.09000000
   H     82.91000000    67.24000000    39.33000000
   H     85.47000000    66.00000000    39.56000000
   H     85.81000000    65.62000000    41.21000000
   H     84.15000000    65.24000000    40.40000000
   H     83.81000000    69.21000000    37.97000000
   H     85.16000000    69.23000000    39.04000000
   H     85.04000000    67.94000000    38.02000000
   N     84.36000000    65.29000000    43.71000000
   C     85.29000000    64.54000000    44.53000000
   C     86.31000000    63.74000000    43.74000000
   O     86.03000000    63.52000000    42.56000000
   C     84.61000000    63.62000000    45.53000000
   O     84.34000000    62.38000000    44.92000000
   H     83.55000000    64.84000000    43.31000000
   H     85.84000000    65.18000000    45.22000000
   H     83.76000000    64.20000000    45.90000000
   H     85.32000000    63.33000000    46.30000000
   H     83.61000000    61.95000000    45.38000000
   N     87.42000000    63.25000000    44.30000000
   C     88.34000000    62.39000000    43.57000000
   C     87.66000000    61.11000000    43.09000000
   O     87.78000000    60.77000000    41.92000000
   C     89.49000000    62.07000000    44.51000000
   H     87.52000000    63.36000000    45.29000000
   H     88.70000000    62.88000000    42.66000000
   H     90.32000000    61.72000000    43.89000000
   H     89.86000000    63.00000000    44.95000000
   H     89.28000000    61.32000000    45.27000000
   N     86.79000000    60.51000000    43.91000000
   C     85.93000000    59.43000000    43.47000000
   C     85.07000000    59.78000000    42.26000000
   O     84.90000000    58.92000000    41.41000000
   C     85.21000000    58.88000000    44.70000000
   H     86.53000000    60.85000000    44.82000000
   H     86.55000000    58.59000000    43.15000000
   H     84.51000000    59.60000000    45.12000000
   H     84.61000000    58.03000000    44.35000000
   H     85.93000000    58.59000000    45.46000000
   N     84.38000000    60.93000000    42.22000000
   C     83.71000000    61.38000000    41.02000000
   C     84.69000000    61.55000000    39.87000000
   O     84.31000000    61.08000000    38.80000000
   C     82.78000000    62.53000000    41.42000000
   C     81.73000000    62.22000000    42.49000000
   C     80.85000000    63.37000000    42.93000000
   O     80.87000000    64.44000000    42.28000000
   O     80.00000000    63.25000000    43.84000000
   H     84.45000000    61.59000000    42.98000000
   H     82.97000000    60.68000000    40.62000000
   H     82.33000000    62.91000000    40.51000000
   H     83.47000000    63.30000000    41.77000000
   H     82.17000000    61.81000000    43.40000000
   H     81.14000000    61.37000000    42.15000000
   N     85.85000000    62.19000000    40.01000000
   C     86.80000000    62.31000000    38.92000000
   H     87.74600000    61.85400000    39.21200000
   H     86.40900000    61.80200000    38.03900000
   H     86.96000000    63.36400000    38.69100000
   H     86.09000000    62.51000000    40.93000000
  Ca     79.47000000    65.88000000    44.09000000
   O     78.75000000    64.72000000    46.33000000
   H     77.89000000    64.38000000    46.08000000
   H     78.97000000    64.26000000    47.14000000

Ca 1.70



