%chk=CaMKII_loop3_113.0.chk
%nprocshared=48
%mem=10GB
%nosave
#b3lyp/svp scf=(tight,noincore) Test 
#IOP(5/87=12) Density=Current Pop=(MK,readradii) iop(6/33=2) iop(6/42=6)

CaMKII_loop3_113.0 

   0   1
   C     20.99000000    50.80000000    19.61000000
   C     22.17000000    50.77000000    18.65000000
   O     22.20000000    51.56000000    17.71000000
   H     20.11600000    50.36500000    19.12500000
   H     21.23300000    50.22500000    20.50300000
   H     20.77400000    51.83100000    19.88900000
   N     23.07000000    49.79000000    18.78000000
   C     24.10000000    49.61000000    17.77000000
   C     23.59000000    48.74000000    16.63000000
   O     23.55000000    47.52000000    16.78000000
   C     25.35000000    48.99000000    18.38000000
   C     26.44000000    48.63000000    17.38000000
   O     26.25000000    48.83000000    16.16000000
   O     27.58000000    48.32000000    17.76000000
   H     23.01000000    49.11000000    19.52000000
   H     24.49000000    50.55000000    17.38000000
   H     25.00000000    48.07000000    18.85000000
   H     25.72000000    49.70000000    19.12000000
   N     23.49000000    49.47000000    15.52000000
   C     23.02000000    48.97000000    14.24000000
   C     23.77000000    47.77000000    13.67000000
   O     23.27000000    47.13000000    12.75000000
   C     23.00000000    50.13000000    13.25000000
   C     22.30000000    50.01000000    11.90000000
   C     22.34000000    51.36000000    11.20000000
   C     21.48000000    51.31000000     9.94000000
   N     21.88000000    50.35000000     8.91000000
   H     23.75000000    50.44000000    15.60000000
   H     21.98000000    48.69000000    14.36000000
   H     24.04000000    50.43000000    13.15000000
   H     22.51000000    50.93000000    13.82000000
   H     21.36000000    49.48000000    12.02000000
   H     22.96000000    49.26000000    11.45000000
   H     23.37000000    51.66000000    10.97000000
   H     21.80000000    52.05000000    11.85000000
   H     21.31000000    52.30000000     9.53000000
   H     20.52000000    51.01000000    10.36000000
   H     21.67000000    49.40000000     9.18000000
   H     21.19000000    50.50000000     8.19000000
   H     22.83000000    50.38000000     8.56000000
   N     25.02000000    47.52000000    14.07000000
   C     25.84000000    46.46000000    13.52000000
   C     26.57000000    45.53000000    14.47000000
   O     27.05000000    44.50000000    14.01000000
   C     26.78000000    47.09000000    12.49000000
   C     27.69000000    48.17000000    13.06000000
   O     28.40000000    48.01000000    14.07000000
   O     27.51000000    49.35000000    12.68000000
   H     25.42000000    47.91000000    14.91000000
   H     25.23000000    45.77000000    12.93000000
   H     26.13000000    47.57000000    11.75000000
   H     27.32000000    46.29000000    11.99000000
   N     26.61000000    45.91000000    15.75000000
   C     27.21000000    45.03000000    16.73000000
   C     28.73000000    44.93000000    16.80000000
   O     29.24000000    43.89000000    17.21000000
   H     26.30000000    46.86000000    15.92000000
   H     26.90000000    43.99000000    16.62000000
   H     26.86000000    45.33000000    17.72000000
   N     29.45000000    45.98000000    16.42000000
   C     30.90000000    46.13000000    16.40000000
   C     31.51000000    46.50000000    17.74000000
   O     32.56000000    45.95000000    18.06000000
   C     31.35000000    47.12000000    15.33000000
   C     31.38000000    48.60000000    15.68000000
   N     32.57000000    49.20000000    15.56000000
   O     30.38000000    49.23000000    16.03000000
   H     28.90000000    46.72000000    16.01000000
   H     31.27000000    45.14000000    16.15000000
   H     30.75000000    46.95000000    14.43000000
   H     32.37000000    46.81000000    15.13000000
   H     33.39000000    48.70000000    15.24000000
   H     32.61000000    50.12000000    15.96000000
   N     30.78000000    47.33000000    18.49000000
   C     31.22000000    47.94000000    19.73000000
   C     30.70000000    49.34000000    20.03000000
   O     30.94000000    49.82000000    21.13000000
   H     29.87000000    47.57000000    18.14000000
   H     32.29000000    48.12000000    19.76000000
   H     31.03000000    47.30000000    20.59000000
   N     30.09000000    50.05000000    19.08000000
   C     29.86000000    51.48000000    19.19000000
   C     28.69000000    51.95000000    18.33000000
   O     28.50000000    51.45000000    17.22000000
   C     31.11000000    52.34000000    19.14000000
   C     32.16000000    52.06000000    18.08000000
   C     33.40000000    51.59000000    18.52000000
   C     32.00000000    52.56000000    16.78000000
   C     34.46000000    51.50000000    17.61000000
   C     33.01000000    52.39000000    15.83000000
   C     34.24000000    51.85000000    16.26000000
   O     35.18000000    51.71000000    15.28000000
   H     29.66000000    49.57000000    18.30000000
   H     29.56000000    51.76000000    20.20000000
   H     31.57000000    52.32000000    20.12000000
   H     30.75000000    53.35000000    18.94000000
   H     33.48000000    51.21000000    19.53000000
   H     31.05000000    52.96000000    16.47000000
   H     35.41000000    51.19000000    18.02000000
   H     32.91000000    52.55000000    14.77000000
   H     35.78000000    51.00000000    15.53000000
   N     28.07000000    53.04000000    18.79000000
   C     26.91000000    53.73000000    18.28000000
   C     27.33000000    55.13000000    17.83000000
   O     28.09000000    55.83000000    18.49000000
   C     25.79000000    53.71000000    19.31000000
   C     25.57000000    52.53000000    20.26000000
   C     24.49000000    54.00000000    18.56000000
   C     24.72000000    52.91000000    21.46000000
   H     28.55000000    53.48000000    19.55000000
   H     26.61000000    53.30000000    17.32000000
   H     25.87000000    54.55000000    19.99000000
   H     26.57000000    52.13000000    20.46000000
   H     25.04000000    51.69000000    19.80000000
   H     23.67000000    53.88000000    19.26000000
   H     24.49000000    55.05000000    18.28000000
   H     24.41000000    53.30000000    17.72000000
   H     24.50000000    52.04000000    22.09000000
   H     25.30000000    53.55000000    22.12000000
   H     23.79000000    53.43000000    21.27000000
   N     26.78000000    55.72000000    16.77000000
   C     27.03000000    57.09000000    16.36000000
   C     25.70000000    57.84000000    16.37000000
   O     24.63000000    57.32000000    16.68000000
   C     27.61000000    57.16000000    14.95000000
   O     26.67000000    56.49000000    14.13000000
   H     26.12000000    55.19000000    16.21000000
   H     27.77000000    57.66000000    16.92000000
   H     28.55000000    56.63000000    14.80000000
   H     27.58000000    58.22000000    14.73000000
   H     27.12000000    56.21000000    13.33000000
   N     25.69000000    59.07000000    15.85000000
   C     24.52000000    59.85000000    15.50000000
   C     23.63000000    59.34000000    14.38000000
   O     22.42000000    59.29000000    14.64000000
   C     24.96000000    61.28000000    15.23000000
   H     26.57000000    59.50000000    15.60000000
   H     23.85000000    59.89000000    16.36000000
   H     24.06000000    61.78000000    14.86000000
   H     25.26000000    61.62000000    16.22000000
   H     25.77000000    61.45000000    14.51000000
   N     24.16000000    58.85000000    13.26000000
   C     23.58000000    58.05000000    12.20000000
   C     22.86000000    56.82000000    12.73000000
   O     21.74000000    56.47000000    12.38000000
   C     24.68000000    57.72000000    11.19000000
   H     25.10000000    59.18000000    13.12000000
   H     22.77000000    58.62000000    11.73000000
   H     25.49000000    57.29000000    11.78000000
   H     24.41000000    57.06000000    10.37000000
   H     25.10000000    58.65000000    10.80000000
   N     23.50000000    56.08000000    13.64000000
   C     22.94000000    54.92000000    14.29000000
   C     21.85000000    55.22000000    15.31000000
   O     20.82000000    54.56000000    15.42000000
   C     24.07000000    54.12000000    14.92000000
   C     24.98000000    53.52000000    13.85000000
   C     25.91000000    52.39000000    14.26000000
   O     25.79000000    51.71000000    15.31000000
   O     26.90000000    52.18000000    13.52000000
   H     24.51000000    56.19000000    13.71000000
   H     22.42000000    54.32000000    13.55000000
   H     23.55000000    53.32000000    15.44000000
   H     24.59000000    54.77000000    15.63000000
   H     25.58000000    54.31000000    13.40000000
   H     24.38000000    53.08000000    13.06000000
   N     21.97000000    56.39000000    15.93000000
   C     21.05000000    56.84000000    16.95000000
   H     20.09800000    56.32300000    16.83300000
   H     21.46300000    56.62200000    17.93500000
   H     20.89400000    57.91400000    16.85100000
   H     22.75000000    57.00000000    15.73000000
  Ca     28.06000000    50.31000000    14.96000000
   O     30.42000000    51.45000000    14.08000000
   H     30.99000000    51.70000000    13.36000000
   H     30.41000000    52.22000000    14.65000000

Ca 1.70



