%chk=CaMKII_loop3_92.0.chk
%nprocshared=48
%mem=10GB
%nosave
#b3lyp/svp scf=(tight,noincore) Test 
#IOP(5/87=12) Density=Current Pop=(MK,readradii) iop(6/33=2) iop(6/42=6)

CaMKII_loop3_92.0 

   0   1
   C     22.15000000    36.08000000    -1.49000000
   C     22.28000000    34.60000000    -1.15000000
   O     23.04000000    33.93000000    -1.85000000
   H     21.31000000    36.50600000    -0.94100000
   H     23.06700000    36.59900000    -1.21100000
   H     21.97900000    36.19400000    -2.56000000
   N     21.58000000    34.15000000    -0.11000000
   C     21.77000000    32.86000000     0.52000000
   C     20.67000000    31.90000000     0.08000000
   O     19.47000000    31.96000000     0.36000000
   C     21.77000000    32.99000000     2.04000000
   C     22.16000000    31.66000000     2.67000000
   O     22.37000000    31.52000000     3.89000000
   O     22.47000000    30.69000000     1.94000000
   H     21.06000000    34.79000000     0.47000000
   H     22.72000000    32.46000000     0.17000000
   H     20.80000000    33.32000000     2.42000000
   H     22.55000000    33.68000000     2.34000000
   N     21.11000000    30.91000000    -0.69000000
   C     20.31000000    30.14000000    -1.62000000
   C     19.33000000    29.27000000    -0.83000000
   O     18.14000000    29.19000000    -1.11000000
   C     21.10000000    29.41000000    -2.70000000
   C     20.20000000    28.85000000    -3.80000000
   C     20.91000000    27.95000000    -4.80000000
   C     20.01000000    27.28000000    -5.84000000
   N     20.74000000    26.25000000    -6.60000000
   H     22.11000000    30.87000000    -0.85000000
   H     19.68000000    30.85000000    -2.16000000
   H     21.59000000    28.60000000    -2.16000000
   H     21.76000000    30.13000000    -3.18000000
   H     19.74000000    29.66000000    -4.37000000
   H     19.37000000    28.31000000    -3.35000000
   H     21.43000000    27.17000000    -4.24000000
   H     21.72000000    28.50000000    -5.27000000
   H     19.51000000    27.96000000    -6.52000000
   H     19.13000000    26.86000000    -5.36000000
   H     21.48000000    25.91000000    -6.00000000
   H     20.11000000    25.48000000    -6.76000000
   H     21.04000000    26.61000000    -7.49000000
   N     19.95000000    28.73000000     0.22000000
   C     19.22000000    27.96000000     1.21000000
   C     18.94000000    28.69000000     2.52000000
   O     18.08000000    28.20000000     3.25000000
   C     19.98000000    26.65000000     1.38000000
   C     21.27000000    26.83000000     2.16000000
   O     21.88000000    25.74000000     2.19000000
   O     21.75000000    27.85000000     2.71000000
   H     20.95000000    28.87000000     0.27000000
   H     18.24000000    27.74000000     0.79000000
   H     20.19000000    26.37000000     0.34000000
   H     19.38000000    25.99000000     2.00000000
   N     19.52000000    29.86000000     2.76000000
   C     19.18000000    30.73000000     3.87000000
   C     19.69000000    30.18000000     5.20000000
   O     19.11000000    30.57000000     6.21000000
   H     20.32000000    30.15000000     2.21000000
   H     18.10000000    30.86000000     3.83000000
   H     19.65000000    31.71000000     3.72000000
   N     20.70000000    29.31000000     5.25000000
   C     21.10000000    28.62000000     6.46000000
   C     21.96000000    29.43000000     7.43000000
   O     22.26000000    28.94000000     8.51000000
   C     21.72000000    27.30000000     6.02000000
   C     23.13000000    27.37000000     5.45000000
   N     23.85000000    26.28000000     5.70000000
   O     23.62000000    28.36000000     4.91000000
   H     21.23000000    29.16000000     4.41000000
   H     20.24000000    28.42000000     7.09000000
   H     20.99000000    26.94000000     5.29000000
   H     21.72000000    26.65000000     6.90000000
   H     23.55000000    25.56000000     6.34000000
   H     24.79000000    26.23000000     5.35000000
   N     22.50000000    30.54000000     6.91000000
   C     23.35000000    31.34000000     7.76000000
   C     24.65000000    31.73000000     7.09000000
   O     25.46000000    32.39000000     7.74000000
   H     22.11000000    30.88000000     6.04000000
   H     23.52000000    30.87000000     8.73000000
   H     22.88000000    32.32000000     7.85000000
   N     24.97000000    31.27000000     5.87000000
   C     26.28000000    31.35000000     5.27000000
   C     26.16000000    31.55000000     3.76000000
   O     25.39000000    30.75000000     3.22000000
   C     27.05000000    30.08000000     5.64000000
   C     27.34000000    29.74000000     7.08000000
   C     28.38000000    30.33000000     7.81000000
   C     26.63000000    28.65000000     7.60000000
   C     28.70000000    29.77000000     9.05000000
   C     26.92000000    28.07000000     8.84000000
   C     28.05000000    28.60000000     9.50000000
   O     28.40000000    28.11000000    10.72000000
   H     24.25000000    30.74000000     5.41000000
   H     26.82000000    32.22000000     5.64000000
   H     28.01000000    30.06000000     5.14000000
   H     26.48000000    29.25000000     5.23000000
   H     28.96000000    31.16000000     7.45000000
   H     25.83000000    28.18000000     7.05000000
   H     29.41000000    30.28000000     9.67000000
   H     26.41000000    27.23000000     9.30000000
   H     29.13000000    28.49000000    11.21000000
   N     27.03000000    32.25000000     3.03000000
   C     27.07000000    32.33000000     1.59000000
   C     28.32000000    31.62000000     1.10000000
   O     29.37000000    31.82000000     1.70000000
   C     26.98000000    33.79000000     1.15000000
   C     25.87000000    34.67000000     1.72000000
   C     26.93000000    33.82000000    -0.37000000
   C     26.37000000    36.11000000     1.79000000
   H     27.62000000    32.89000000     3.55000000
   H     26.19000000    31.83000000     1.19000000
   H     27.92000000    34.28000000     1.43000000
   H     25.51000000    34.38000000     2.71000000
   H     25.00000000    34.47000000     1.10000000
   H     26.24000000    33.05000000    -0.72000000
   H     26.50000000    34.72000000    -0.81000000
   H     27.89000000    33.66000000    -0.87000000
   H     25.56000000    36.82000000     1.93000000
   H     26.92000000    36.23000000     2.73000000
   H     27.01000000    36.25000000     0.92000000
   N     28.18000000    30.95000000    -0.05000000
   C     29.20000000    30.09000000    -0.61000000
   C     29.41000000    30.42000000    -2.08000000
   O     28.59000000    31.18000000    -2.59000000
   C     28.63000000    28.68000000    -0.55000000
   O     29.72000000    27.78000000    -0.54000000
   H     27.23000000    30.67000000    -0.25000000
   H     30.11000000    30.18000000    -0.02000000
   H     28.09000000    28.43000000    -1.46000000
   H     28.16000000    28.46000000     0.41000000
   H     29.43000000    26.87000000    -0.51000000
   N     30.40000000    29.85000000    -2.78000000
   C     30.73000000    30.24000000    -4.13000000
   C     29.72000000    29.99000000    -5.24000000
   O     29.44000000    30.91000000    -6.01000000
   C     32.11000000    29.64000000    -4.41000000
   H     30.97000000    29.26000000    -2.18000000
   H     30.93000000    31.31000000    -4.07000000
   H     32.30000000    29.63000000    -5.48000000
   H     32.90000000    30.28000000    -4.01000000
   H     32.23000000    28.63000000    -4.02000000
   N     29.14000000    28.80000000    -5.42000000
   C     28.06000000    28.56000000    -6.36000000
   C     26.75000000    29.23000000    -5.96000000
   O     25.91000000    29.53000000    -6.81000000
   C     27.97000000    27.06000000    -6.63000000
   H     29.58000000    28.02000000    -4.96000000
   H     28.40000000    29.01000000    -7.29000000
   H     27.85000000    26.42000000    -5.76000000
   H     27.07000000    26.84000000    -7.20000000
   H     28.82000000    26.74000000    -7.24000000
   N     26.58000000    29.53000000    -4.68000000
   C     25.48000000    30.32000000    -4.16000000
   C     25.55000000    31.77000000    -4.61000000
   O     24.59000000    32.25000000    -5.21000000
   C     25.29000000    30.26000000    -2.65000000
   C     25.05000000    28.87000000    -2.05000000
   C     24.93000000    28.73000000    -0.54000000
   O     24.30000000    27.76000000    -0.06000000
   O     25.49000000    29.53000000     0.23000000
   H     27.30000000    29.12000000    -4.10000000
   H     24.51000000    29.97000000    -4.53000000
   H     24.41000000    30.86000000    -2.41000000
   H     26.10000000    30.76000000    -2.13000000
   H     25.79000000    28.16000000    -2.43000000
   H     24.15000000    28.49000000    -2.53000000
   N     26.75000000    32.36000000    -4.62000000
   C     27.05000000    33.72000000    -5.02000000
   H     28.03100000    33.75100000    -5.49500000
   H     26.29500000    34.06700000    -5.72500000
   H     27.05200000    34.36600000    -4.14200000
   H     27.54000000    31.90000000    -4.20000000
  Ca     24.07000000    28.75000000     2.38000000
   O     26.68000000    28.11000000     2.68000000
   H     26.97000000    27.22000000     2.45000000
   H     27.44000000    28.49000000     3.11000000

Ca 1.70



