%chk=CaMKII_loop3_70.0.chk
%nprocshared=48
%mem=10GB
%nosave
#b3lyp/svp scf=(tight,noincore) Test 
#IOP(5/87=12) Density=Current Pop=(MK,readradii) iop(6/33=2) iop(6/42=6)

CaMKII_loop3_70.0 

   0   1
   C     66.66000000    46.23000000    25.42000000
   C     65.63000000    45.17000000    25.78000000
   O     66.00000000    44.03000000    26.02000000
   H     67.57400000    45.74600000    25.07500000
   H     66.26600000    46.86700000    24.62800000
   H     66.88000000    46.83600000    26.29800000
   N     64.32000000    45.44000000    25.88000000
   C     63.30000000    44.48000000    26.24000000
   C     63.20000000    43.43000000    25.14000000
   O     62.91000000    43.76000000    23.99000000
   C     61.98000000    45.22000000    26.44000000
   C     60.87000000    44.29000000    26.93000000
   O     61.28000000    43.14000000    27.19000000
   O     59.71000000    44.73000000    27.01000000
   H     64.13000000    46.38000000    25.56000000
   H     63.62000000    43.95000000    27.13000000
   H     61.68000000    45.73000000    25.52000000
   H     62.07000000    45.89000000    27.29000000
   N     63.41000000    42.14000000    25.42000000
   C     63.54000000    41.06000000    24.47000000
   C     62.23000000    40.29000000    24.31000000
   O     61.99000000    39.74000000    23.24000000
   C     64.70000000    40.16000000    24.89000000
   C     65.38000000    39.56000000    23.66000000
   C     66.18000000    38.33000000    24.07000000
   C     67.06000000    37.93000000    22.89000000
   N     67.41000000    36.52000000    23.14000000
   H     63.46000000    41.84000000    26.39000000
   H     63.84000000    41.50000000    23.52000000
   H     64.41000000    39.37000000    25.58000000
   H     65.47000000    40.78000000    25.36000000
   H     66.01000000    40.32000000    23.20000000
   H     64.59000000    39.21000000    22.99000000
   H     65.43000000    37.53000000    24.15000000
   H     66.61000000    38.52000000    25.05000000
   H     67.87000000    38.65000000    22.86000000
   H     66.60000000    37.96000000    21.90000000
   H     67.82000000    36.07000000    22.33000000
   H     68.06000000    36.46000000    23.91000000
   H     66.63000000    35.96000000    23.45000000
   N     61.33000000    40.30000000    25.30000000
   C     60.03000000    39.69000000    25.13000000
   C     58.94000000    40.68000000    24.77000000
   O     57.92000000    40.22000000    24.25000000
   C     59.76000000    38.89000000    26.40000000
   C     59.78000000    39.78000000    27.63000000
   O     60.46000000    39.44000000    28.62000000
   O     59.25000000    40.91000000    27.59000000
   H     61.46000000    40.83000000    26.15000000
   H     60.05000000    38.94000000    24.34000000
   H     60.44000000    38.04000000    26.38000000
   H     58.74000000    38.49000000    26.37000000
   N     59.14000000    41.98000000    24.99000000
   C     58.20000000    43.04000000    24.64000000
   C     57.08000000    43.36000000    25.62000000
   O     56.05000000    43.88000000    25.22000000
   H     59.90000000    42.28000000    25.58000000
   H     57.81000000    42.81000000    23.65000000
   H     58.79000000    43.93000000    24.42000000
   N     57.22000000    43.01000000    26.90000000
   C     56.14000000    43.10000000    27.86000000
   C     56.11000000    44.44000000    28.57000000
   O     55.29000000    44.75000000    29.43000000
   C     56.27000000    42.06000000    28.98000000
   C     57.39000000    42.34000000    29.97000000
   N     57.14000000    42.29000000    31.28000000
   O     58.50000000    42.73000000    29.62000000
   H     58.06000000    42.52000000    27.17000000
   H     55.23000000    42.92000000    27.29000000
   H     56.48000000    41.09000000    28.54000000
   H     55.30000000    42.07000000    29.48000000
   H     56.20000000    42.05000000    31.59000000
   H     57.86000000    42.54000000    31.94000000
   N     57.02000000    45.34000000    28.17000000
   C     57.05000000    46.74000000    28.53000000
   C     58.12000000    47.06000000    29.56000000
   O     58.10000000    48.19000000    30.05000000
   H     57.77000000    45.02000000    27.57000000
   H     56.10000000    47.02000000    29.00000000
   H     57.13000000    47.44000000    27.70000000
   N     59.03000000    46.13000000    29.83000000
   C     60.05000000    46.24000000    30.85000000
   C     61.35000000    45.60000000    30.38000000
   O     61.39000000    44.56000000    29.72000000
   C     59.66000000    45.61000000    32.18000000
   C     58.34000000    46.17000000    32.64000000
   C     58.31000000    47.10000000    33.68000000
   C     57.14000000    45.59000000    32.19000000
   C     57.09000000    47.60000000    34.13000000
   C     55.92000000    46.08000000    32.66000000
   C     55.89000000    47.22000000    33.49000000
   O     54.69000000    47.80000000    33.77000000
   H     59.09000000    45.37000000    29.16000000
   H     60.30000000    47.30000000    30.98000000
   H     60.43000000    45.76000000    32.94000000
   H     59.53000000    44.53000000    32.04000000
   H     59.23000000    47.33000000    34.20000000
   H     57.19000000    44.87000000    31.38000000
   H     57.03000000    48.44000000    34.81000000
   H     55.05000000    45.72000000    32.12000000
   H     54.00000000    47.29000000    33.33000000
   N     62.45000000    46.21000000    30.83000000
   C     63.83000000    45.76000000    30.76000000
   C     64.23000000    45.20000000    32.12000000
   O     64.06000000    45.86000000    33.14000000
   C     64.87000000    46.78000000    30.31000000
   C     64.30000000    47.55000000    29.12000000
   C     66.17000000    46.05000000    29.99000000
   C     65.10000000    48.83000000    28.90000000
   H     62.32000000    47.08000000    31.31000000
   H     63.90000000    44.96000000    30.03000000
   H     65.10000000    47.44000000    31.14000000
   H     63.29000000    47.89000000    29.35000000
   H     64.18000000    46.89000000    28.26000000
   H     65.99000000    45.42000000    29.12000000
   H     66.86000000    46.83000000    29.66000000
   H     66.52000000    45.56000000    30.90000000
   H     64.80000000    49.57000000    29.65000000
   H     66.19000000    48.81000000    28.94000000
   H     64.85000000    49.33000000    27.96000000
   N     64.81000000    44.00000000    32.09000000
   C     65.45000000    43.27000000    33.17000000
   C     66.93000000    43.05000000    32.89000000
   O     67.36000000    43.16000000    31.75000000
   C     64.76000000    41.92000000    33.34000000
   O     64.71000000    41.24000000    32.10000000
   H     65.04000000    43.66000000    31.17000000
   H     65.36000000    43.78000000    34.13000000
   H     63.76000000    42.11000000    33.72000000
   H     65.36000000    41.41000000    34.09000000
   H     64.27000000    41.76000000    31.43000000
   N     67.74000000    42.81000000    33.93000000
   C     69.13000000    42.42000000    34.02000000
   C     69.76000000    41.39000000    33.09000000
   O     70.91000000    41.51000000    32.68000000
   C     69.36000000    42.07000000    35.48000000
   H     67.17000000    42.77000000    34.76000000
   H     69.68000000    43.34000000    33.80000000
   H     70.38000000    41.89000000    35.83000000
   H     68.93000000    42.80000000    36.17000000
   H     68.89000000    41.11000000    35.69000000
   N     69.01000000    40.38000000    32.64000000
   C     69.48000000    39.43000000    31.64000000
   C     69.17000000    39.95000000    30.25000000
   O     69.91000000    39.59000000    29.34000000
   C     68.84000000    38.07000000    31.86000000
   H     68.14000000    40.21000000    33.11000000
   H     70.54000000    39.20000000    31.76000000
   H     69.18000000    37.38000000    31.08000000
   H     68.90000000    37.81000000    32.92000000
   H     67.76000000    38.21000000    31.74000000
   N     68.16000000    40.81000000    30.05000000
   C     67.93000000    41.42000000    28.76000000
   C     68.95000000    42.51000000    28.48000000
   O     69.45000000    42.64000000    27.37000000
   C     66.49000000    41.93000000    28.77000000
   C     65.42000000    40.85000000    28.74000000
   C     63.98000000    41.31000000    28.94000000
   O     63.09000000    40.81000000    28.21000000
   O     63.58000000    42.08000000    29.83000000
   H     67.64000000    41.08000000    30.87000000
   H     68.06000000    40.63000000    28.02000000
   H     66.35000000    42.57000000    27.90000000
   H     66.27000000    42.40000000    29.74000000
   H     65.66000000    40.08000000    29.48000000
   H     65.46000000    40.24000000    27.84000000
   N     69.36000000    43.30000000    29.48000000
   C     70.43000000    44.24000000    29.21000000
   H     71.30900000    43.69900000    28.85900000
   H     70.10900000    44.94600000    28.44400000
   H     70.67800000    44.78100000    30.12300000
   H     68.90000000    43.21000000    30.37000000
  Ca     60.99000000    41.90000000    29.37000000
   O     60.57000000    42.41000000    31.90000000
   H     60.51000000    41.63000000    32.44000000
   H     60.66000000    43.13000000    32.52000000

Ca 1.70



