%chk=CaMKII_loop3_74.0.chk
%nprocshared=48
%mem=10GB
%nosave
#b3lyp/svp scf=(tight,noincore) Test 
#IOP(5/87=12) Density=Current Pop=(MK,readradii) iop(6/33=2) iop(6/42=6)

CaMKII_loop3_74.0 

   0   1
   C     62.25000000    45.86000000    40.54000000
   C     61.52000000    45.35000000    41.77000000
   O     61.98000000    44.38000000    42.38000000
   H     63.25100000    45.42900000    40.50700000
   H     61.70000000    45.57000000    39.64400000
   H     62.32500000    46.94600000    40.58600000
   N     60.51000000    46.05000000    42.30000000
   C     59.96000000    45.75000000    43.60000000
   C     58.72000000    44.92000000    43.30000000
   O     57.74000000    45.31000000    42.66000000
   C     59.46000000    47.03000000    44.26000000
   C     58.90000000    46.79000000    45.65000000
   O     58.26000000    47.72000000    46.19000000
   O     58.98000000    45.72000000    46.28000000
   H     60.16000000    46.85000000    41.79000000
   H     60.74000000    45.21000000    44.13000000
   H     58.79000000    47.62000000    43.63000000
   H     60.33000000    47.68000000    44.31000000
   N     58.80000000    43.63000000    43.65000000
   C     57.98000000    42.62000000    43.03000000
   C     56.70000000    42.30000000    43.78000000
   O     55.68000000    42.10000000    43.11000000
   C     58.75000000    41.31000000    42.89000000
   C     60.08000000    41.35000000    42.15000000
   C     59.99000000    41.87000000    40.72000000
   C     61.22000000    41.37000000    39.97000000
   N     61.03000000    41.55000000    38.52000000
   H     59.55000000    43.38000000    44.28000000
   H     57.65000000    42.86000000    42.02000000
   H     58.18000000    40.48000000    42.48000000
   H     59.00000000    41.09000000    43.93000000
   H     60.39000000    40.30000000    42.07000000
   H     60.84000000    41.93000000    42.66000000
   H     60.03000000    42.96000000    40.74000000
   H     59.11000000    41.53000000    40.17000000
   H     61.41000000    40.32000000    40.16000000
   H     62.07000000    41.89000000    40.40000000
   H     61.75000000    41.08000000    37.99000000
   H     60.13000000    41.20000000    38.20000000
   H     60.99000000    42.54000000    38.32000000
   N     56.72000000    42.33000000    45.12000000
   C     55.56000000    42.46000000    45.98000000
   C     55.08000000    43.91000000    46.01000000
   O     53.93000000    44.12000000    46.41000000
   C     55.75000000    41.81000000    47.35000000
   C     56.98000000    42.32000000    48.08000000
   O     57.50000000    41.59000000    48.95000000
   O     57.36000000    43.50000000    47.89000000
   H     57.62000000    42.43000000    45.56000000
   H     54.82000000    41.82000000    45.51000000
   H     55.77000000    40.72000000    47.28000000
   H     54.92000000    41.99000000    48.03000000
   N     55.91000000    44.86000000    45.58000000
   C     55.45000000    46.23000000    45.42000000
   C     55.24000000    46.96000000    46.74000000
   O     54.45000000    47.90000000    46.78000000
   H     56.70000000    44.55000000    45.04000000
   H     54.49000000    46.23000000    44.91000000
   H     56.22000000    46.81000000    44.91000000
   N     55.87000000    46.64000000    47.87000000
   C     55.61000000    47.09000000    49.22000000
   C     56.23000000    48.46000000    49.51000000
   O     55.85000000    49.17000000    50.43000000
   C     55.96000000    46.04000000    50.27000000
   C     57.45000000    45.88000000    50.55000000
   N     57.81000000    46.04000000    51.82000000
   O     58.24000000    45.65000000    49.64000000
   H     56.54000000    45.88000000    47.82000000
   H     54.54000000    47.29000000    49.28000000
   H     55.56000000    45.08000000    49.93000000
   H     55.36000000    46.31000000    51.14000000
   H     57.13000000    46.17000000    52.57000000
   H     58.75000000    46.29000000    52.07000000
   N     57.21000000    48.90000000    48.71000000
   C     57.71000000    50.25000000    48.62000000
   C     59.21000000    50.33000000    48.40000000
   O     59.75000000    51.40000000    48.11000000
   H     57.47000000    48.29000000    47.95000000
   H     57.60000000    50.76000000    49.58000000
   H     57.28000000    50.82000000    47.80000000
   N     59.91000000    49.20000000    48.52000000
   C     61.35000000    49.06000000    48.47000000
   C     61.87000000    47.80000000    47.78000000
   O     61.45000000    46.69000000    48.08000000
   C     61.90000000    49.24000000    49.88000000
   C     61.24000000    48.37000000    50.92000000
   C     60.08000000    48.80000000    51.57000000
   C     62.02000000    47.28000000    51.33000000
   C     59.61000000    48.08000000    52.68000000
   C     61.66000000    46.67000000    52.54000000
   C     60.49000000    47.11000000    53.19000000
   O     60.12000000    46.53000000    54.37000000
   H     59.37000000    48.37000000    48.70000000
   H     61.79000000    49.89000000    47.91000000
   H     61.73000000    50.27000000    50.21000000
   H     62.98000000    49.10000000    49.87000000
   H     59.55000000    49.70000000    51.29000000
   H     62.80000000    46.84000000    50.73000000
   H     58.69000000    48.38000000    53.17000000
   H     62.39000000    45.95000000    52.86000000
   H     60.57000000    45.74000000    54.67000000
   N     62.98000000    47.98000000    47.06000000
   C     63.92000000    46.97000000    46.62000000
   C     64.61000000    46.28000000    47.79000000
   O     64.89000000    46.90000000    48.82000000
   C     64.90000000    47.53000000    45.60000000
   C     64.26000000    48.46000000    44.57000000
   C     65.72000000    46.40000000    44.97000000
   C     65.11000000    49.13000000    43.49000000
   H     63.31000000    48.93000000    47.09000000
   H     63.29000000    46.25000000    46.10000000
   H     65.63000000    48.10000000    46.18000000
   H     63.67000000    49.21000000    45.10000000
   H     63.60000000    47.74000000    44.07000000
   H     66.44000000    46.04000000    45.71000000
   H     65.06000000    45.62000000    44.59000000
   H     66.22000000    46.75000000    44.07000000
   H     65.40000000    48.44000000    42.70000000
   H     64.55000000    49.91000000    42.98000000
   H     66.00000000    49.53000000    43.97000000
   N     64.89000000    44.99000000    47.61000000
   C     65.66000000    44.06000000    48.42000000
   C     66.52000000    43.15000000    47.55000000
   O     66.27000000    42.91000000    46.37000000
   C     64.67000000    43.37000000    49.35000000
   O     63.83000000    42.49000000    48.63000000
   H     64.55000000    44.56000000    46.76000000
   H     66.30000000    44.69000000    49.03000000
   H     64.13000000    44.05000000    50.00000000
   H     65.36000000    42.72000000    49.89000000
   H     63.23000000    42.95000000    48.04000000
   N     67.53000000    42.52000000    48.15000000
   C     68.54000000    41.82000000    47.37000000
   C     67.99000000    40.55000000    46.74000000
   O     68.44000000    40.26000000    45.63000000
   C     69.72000000    41.42000000    48.24000000
   H     67.50000000    42.48000000    49.16000000
   H     69.01000000    42.40000000    46.58000000
   H     70.66000000    41.40000000    47.69000000
   H     69.91000000    42.29000000    48.87000000
   H     69.56000000    40.50000000    48.80000000
   N     66.97000000    39.94000000    47.34000000
   C     66.29000000    38.83000000    46.69000000
   C     65.49000000    39.13000000    45.42000000
   O     65.19000000    38.26000000    44.61000000
   C     65.48000000    38.16000000    47.79000000
   H     66.74000000    40.30000000    48.25000000
   H     67.14000000    38.18000000    46.48000000
   H     64.72000000    38.84000000    48.19000000
   H     64.94000000    37.31000000    47.38000000
   H     66.21000000    37.84000000    48.54000000
   N     65.11000000    40.40000000    45.26000000
   C     64.41000000    40.98000000    44.13000000
   C     65.46000000    41.33000000    43.08000000
   O     65.36000000    40.89000000    41.93000000
   C     63.44000000    42.06000000    44.58000000
   C     62.27000000    41.51000000    45.38000000
   C     61.43000000    42.54000000    46.13000000
   O     60.20000000    42.69000000    45.97000000
   O     61.98000000    43.28000000    46.98000000
   H     65.45000000    41.04000000    45.96000000
   H     63.72000000    40.28000000    43.65000000
   H     63.08000000    42.60000000    43.70000000
   H     63.93000000    42.88000000    45.11000000
   H     62.56000000    40.85000000    46.19000000
   H     61.63000000    40.99000000    44.66000000
   N     66.51000000    42.05000000    43.46000000
   C     67.54000000    42.51000000    42.55000000
   H     68.45500000    41.94300000    42.72100000
   H     67.20900000    42.36400000    41.52200000
   H     67.73200000    43.56900000    42.72300000
   H     66.42000000    42.48000000    44.37000000
  Ca     59.89000000    44.30000000    48.07000000
   O     61.04000000    44.64000000    50.47000000
   H     61.17000000    45.49000000    50.89000000
   H     61.07000000    44.00000000    51.18000000

Ca 1.70



