%chk=CaMKII_loop3_91.0.chk
%nprocshared=48
%mem=10GB
%nosave
#b3lyp/svp scf=(tight,noincore) Test 
#IOP(5/87=12) Density=Current Pop=(MK,readradii) iop(6/33=2) iop(6/42=6)

CaMKII_loop3_91.0 

   0   1
   C     80.26800000    65.41000000    31.87000000
   C     79.83800000    65.39000000    33.32000000
   O     80.18800000    64.49000000    34.09000000
   H     81.30000000    65.06700000    31.79300000
   H     79.62200000    64.75100000    31.29000000
   H     80.19400000    66.42600000    31.48200000
   N     79.20800000    66.46000000    33.81000000
   C     78.50800000    66.43000000    35.08000000
   C     77.13800000    65.77000000    34.92000000
   O     76.16800000    66.38000000    34.48000000
   C     78.32800000    67.87000000    35.55000000
   C     78.04800000    68.17000000    37.02000000
   O     77.84800000    69.36000000    37.36000000
   O     78.00800000    67.23000000    37.84000000
   H     79.02800000    67.22000000    33.18000000
   H     79.13800000    65.82000000    35.72000000
   H     77.64800000    68.40000000    34.88000000
   H     79.23800000    68.43000000    35.37000000
   N     76.97800000    64.49000000    35.24000000
   C     75.79800000    63.69000000    34.98000000
   C     74.70800000    63.80000000    36.03000000
   O     73.59800000    63.39000000    35.68000000
   C     76.37800000    62.28000000    34.86000000
   C     75.42800000    61.27000000    34.22000000
   C     75.93800000    59.84000000    34.14000000
   C     75.39800000    58.94000000    35.26000000
   N     76.03800000    57.61000000    35.17000000
   H     77.71800000    64.04000000    35.77000000
   H     75.35800000    63.96000000    34.02000000
   H     76.79800000    61.92000000    35.80000000
   H     77.28800000    62.40000000    34.29000000
   H     75.30800000    61.68000000    33.22000000
   H     74.51800000    61.31000000    34.82000000
   H     77.01800000    59.74000000    34.07000000
   H     75.58800000    59.39000000    33.21000000
   H     74.31800000    58.89000000    35.14000000
   H     75.72800000    59.43000000    36.17000000
   H     76.06800000    57.13000000    34.28000000
   H     77.01800000    57.80000000    35.29000000
   H     75.67800000    57.04000000    35.92000000
   N     75.03800000    64.24000000    37.24000000
   C     73.95800000    64.71000000    38.09000000
   C     73.71800000    66.21000000    38.16000000
   O     72.68800000    66.59000000    38.71000000
   C     74.10800000    64.09000000    39.48000000
   C     75.34800000    64.55000000    40.23000000
   O     76.13800000    65.40000000    39.78000000
   O     75.48800000    64.07000000    41.37000000
   H     75.98800000    64.51000000    37.45000000
   H     73.00800000    64.35000000    37.69000000
   H     74.10800000    63.00000000    39.45000000
   H     73.21800000    64.44000000    40.01000000
   N     74.65800000    67.02000000    37.66000000
   C     74.59800000    68.47000000    37.64000000
   C     74.75800000    68.98000000    39.06000000
   O     73.82800000    69.66000000    39.49000000
   H     75.50800000    66.54000000    37.41000000
   H     73.65800000    68.82000000    37.22000000
   H     75.38800000    68.95000000    37.05000000
   N     75.93800000    68.82000000    39.68000000
   C     76.24800000    69.46000000    40.94000000
   C     77.33800000    70.52000000    40.99000000
   O     77.51800000    71.28000000    41.94000000
   C     76.45800000    68.39000000    42.00000000
   C     77.73800000    67.58000000    41.81000000
   N     77.92800000    66.61000000    42.71000000
   O     78.54800000    67.75000000    40.90000000
   H     76.65800000    68.23000000    39.30000000
   H     75.32800000    70.00000000    41.13000000
   H     75.71800000    67.59000000    42.08000000
   H     76.44800000    68.97000000    42.92000000
   H     77.19800000    66.45000000    43.39000000
   H     78.79800000    66.10000000    42.76000000
   N     78.06800000    70.63000000    39.88000000
   C     79.08800000    71.62000000    39.56000000
   C     80.50800000    71.08000000    39.54000000
   O     81.39800000    71.94000000    39.51000000
   H     77.84800000    70.09000000    39.05000000
   H     79.02800000    72.45000000    40.26000000
   H     78.68800000    71.99000000    38.62000000
   N     80.75800000    69.77000000    39.62000000
   C     81.99800000    69.05000000    39.47000000
   C     81.92800000    67.74000000    38.70000000
   O     81.04800000    66.93000000    38.99000000
   C     82.69800000    68.72000000    40.79000000
   C     82.01800000    69.18000000    42.05000000
   C     82.12800000    70.52000000    42.44000000
   C     81.22800000    68.23000000    42.71000000
   C     81.38800000    70.89000000    43.57000000
   C     80.59800000    68.56000000    43.91000000
   C     80.61800000    69.93000000    44.25000000
   O     80.03800000    70.32000000    45.42000000
   H     79.90800000    69.22000000    39.58000000
   H     82.67800000    69.64000000    38.85000000
   H     83.72800000    69.07000000    40.72000000
   H     82.85800000    67.64000000    40.81000000
   H     82.71800000    71.24000000    41.88000000
   H     81.20800000    67.19000000    42.41000000
   H     81.51800000    71.88000000    43.96000000
   H     79.96800000    67.87000000    44.47000000
   H     79.73800000    69.51000000    45.84000000
   N     82.89800000    67.48000000    37.83000000
   C     83.06800000    66.16000000    37.25000000
   C     83.95800000    65.26000000    38.10000000
   O     85.08800000    65.61000000    38.44000000
   C     83.65800000    66.25000000    35.84000000
   C     83.06800000    67.35000000    34.96000000
   C     83.66800000    64.87000000    35.20000000
   C     83.98800000    67.70000000    33.79000000
   H     83.59800000    68.19000000    37.69000000
   H     82.05800000    65.79000000    37.13000000
   H     84.66800000    66.63000000    36.02000000
   H     82.91800000    68.25000000    35.55000000
   H     82.05800000    67.08000000    34.63000000
   H     83.75800000    64.95000000    34.11000000
   H     84.52800000    64.31000000    35.56000000
   H     82.72800000    64.38000000    35.48000000
   H     84.23800000    66.86000000    33.15000000
   H     83.50800000    68.51000000    33.24000000
   H     84.94800000    68.06000000    34.16000000
   N     83.51800000    64.01000000    38.24000000
   C     84.17800000    62.90000000    38.90000000
   C     84.60800000    61.83000000    37.90000000
   O     84.19800000    61.82000000    36.74000000
   C     83.34800000    62.28000000    40.02000000
   O     82.19800000    61.71000000    39.45000000
   H     82.71800000    63.73000000    37.70000000
   H     85.09800000    63.26000000    39.36000000
   H     83.14800000    62.94000000    40.87000000
   H     83.92800000    61.44000000    40.41000000
   H     81.65800000    62.48000000    39.27000000
   N     85.40800000    60.82000000    38.25000000
   C     86.00800000    59.86000000    37.34000000
   C     84.92800000    58.92000000    36.82000000
   O     84.97800000    58.38000000    35.72000000
   C     87.12800000    59.06000000    38.00000000
   H     85.79800000    60.86000000    39.18000000
   H     86.42800000    60.41000000    36.50000000
   H     87.57800000    58.33000000    37.32000000
   H     87.92800000    59.73000000    38.31000000
   H     86.74800000    58.39000000    38.77000000
   N     83.92800000    58.66000000    37.67000000
   C     82.80800000    57.83000000    37.28000000
   C     82.00800000    58.46000000    36.14000000
   O     81.72800000    57.81000000    35.14000000
   C     81.95800000    57.45000000    38.49000000
   H     84.04800000    58.90000000    38.65000000
   H     83.23800000    56.94000000    36.82000000
   H     81.14800000    56.83000000    38.12000000
   H     82.57800000    56.82000000    39.14000000
   H     81.50800000    58.27000000    39.04000000
   N     81.61800000    59.72000000    36.34000000
   C     80.85800000    60.46000000    35.34000000
   C     81.71800000    60.65000000    34.10000000
   O     81.14800000    60.47000000    33.02000000
   C     80.40800000    61.83000000    35.83000000
   C     79.54800000    61.72000000    37.09000000
   C     79.32800000    63.02000000    37.85000000
   O     80.25800000    63.65000000    38.38000000
   O     78.18800000    63.53000000    37.91000000
   H     81.70800000    60.12000000    37.26000000
   H     80.00800000    59.85000000    35.05000000
   H     79.68800000    62.22000000    35.10000000
   H     81.21800000    62.51000000    36.07000000
   H     80.11800000    61.05000000    37.74000000
   H     78.60800000    61.22000000    36.86000000
   N     83.00800000    60.95000000    34.20000000
   C     83.92800000    61.02000000    33.08000000
   H     84.88300000    60.58100000    33.36700000
   H     83.51500000    60.46900000    32.23500000
   H     84.07800000    62.06200000    32.79700000
   H     83.34800000    61.12000000    35.13000000
  Ca     78.81000000    65.54000000    39.66000000
   O     80.52000000    64.93000000    41.58000000
   H     80.37000000    64.14000000    42.09000000
   H     81.42000000    65.19000000    41.80000000

Ca 1.70



