%chk=CaMKII_loop3_62.0.chk
%nprocshared=48
%mem=10GB
%nosave
#b3lyp/svp scf=(tight,noincore) Test 
#IOP(5/87=12) Density=Current Pop=(MK,readradii) iop(6/33=2) iop(6/42=6)

CaMKII_loop3_62.0 

   0   1
   C     70.96100000    46.87000000    19.92000000
   C     69.55100000    46.38000000    20.21000000
   O     69.29100000    45.20000000    19.96000000
   H     71.64600000    46.02200000    19.91300000
   H     70.98300000    47.36200000    18.94700000
   H     71.26700000    47.57600000    20.69200000
   N     68.63100000    47.15000000    20.79000000
   C     67.34100000    46.78000000    21.34000000
   C     66.48100000    46.40000000    20.14000000
   O     66.21100000    47.26000000    19.30000000
   C     66.78100000    47.95000000    22.14000000
   C     65.41100000    47.70000000    22.75000000
   O     64.88100000    46.57000000    22.70000000
   O     64.78100000    48.62000000    23.31000000
   H     68.93100000    48.10000000    20.95000000
   H     67.48100000    45.89000000    21.96000000
   H     66.76100000    48.82000000    21.49000000
   H     67.49100000    48.11000000    22.95000000
   N     65.99100000    45.16000000    20.03000000
   C     65.53100000    44.42000000    18.87000000
   C     64.03100000    44.58000000    18.68000000
   O     63.54100000    44.95000000    17.61000000
   C     66.12100000    43.02000000    18.77000000
   C     65.73100000    42.24000000    17.52000000
   C     66.80100000    41.17000000    17.27000000
   C     66.37100000    40.21000000    16.18000000
   N     66.36100000    40.97000000    14.92000000
   H     66.22100000    44.60000000    20.83000000
   H     65.97100000    45.02000000    18.07000000
   H     65.92100000    42.51000000    19.72000000
   H     67.21100000    43.05000000    18.82000000
   H     65.80100000    42.95000000    16.69000000
   H     64.72100000    41.84000000    17.59000000
   H     66.97100000    40.53000000    18.13000000
   H     67.73100000    41.69000000    17.02000000
   H     65.39100000    39.78000000    16.38000000
   H     67.07100000    39.37000000    16.16000000
   H     66.97100000    41.77000000    14.85000000
   H     66.54100000    40.34000000    14.15000000
   H     65.43100000    41.31000000    14.76000000
   N     63.31100000    44.66000000    19.80000000
   C     61.89100000    44.94000000    19.85000000
   C     61.53100000    46.33000000    20.37000000
   O     60.36100000    46.69000000    20.34000000
   C     61.20100000    43.83000000    20.64000000
   C     61.61100000    43.58000000    22.08000000
   O     61.16100000    42.66000000    22.79000000
   O     62.45100000    44.36000000    22.59000000
   H     63.77100000    44.55000000    20.69000000
   H     61.43100000    44.92000000    18.86000000
   H     61.32100000    42.90000000    20.08000000
   H     60.16100000    44.13000000    20.65000000
   N     62.53100000    47.14000000    20.74000000
   C     62.32100000    48.51000000    21.19000000
   C     61.41100000    48.66000000    22.40000000
   O     60.85100000    49.75000000    22.52000000
   H     63.49100000    46.86000000    20.63000000
   H     61.82100000    49.06000000    20.40000000
   H     63.31100000    48.91000000    21.42000000
   N     61.33100000    47.68000000    23.30000000
   C     60.57100000    47.74000000    24.53000000
   C     61.22100000    48.65000000    25.56000000
   O     60.69100000    48.80000000    26.66000000
   C     60.39100000    46.33000000    25.08000000
   C     61.69100000    45.71000000    25.58000000
   N     61.52100000    44.99000000    26.69000000
   O     62.84100000    45.98000000    25.24000000
   H     62.00100000    46.93000000    23.18000000
   H     59.62100000    48.17000000    24.22000000
   H     60.00100000    45.62000000    24.34000000
   H     59.68100000    46.44000000    25.90000000
   H     60.59100000    44.88000000    27.08000000
   H     62.26100000    44.45000000    27.12000000
   N     62.38100000    49.24000000    25.25000000
   C     63.19100000    50.11000000    26.06000000
   C     64.43100000    49.51000000    26.72000000
   O     65.02100000    50.15000000    27.59000000
   H     62.79100000    49.03000000    24.35000000
   H     62.54100000    50.64000000    26.76000000
   H     63.57100000    50.87000000    25.37000000
   N     64.88100000    48.33000000    26.29000000
   C     65.85100000    47.57000000    27.05000000
   C     66.70100000    46.69000000    26.15000000
   O     66.18100000    45.75000000    25.56000000
   C     65.09100000    46.67000000    28.02000000
   C     64.40100000    47.32000000    29.19000000
   C     65.16100000    47.55000000    30.35000000
   C     63.01100000    47.50000000    29.22000000
   C     64.55100000    48.18000000    31.44000000
   C     62.40100000    48.17000000    30.28000000
   C     63.18100000    48.52000000    31.40000000
   O     62.66100000    49.21000000    32.45000000
   H     64.54100000    47.98000000    25.41000000
   H     66.54100000    48.18000000    27.65000000
   H     65.81100000    45.96000000    28.43000000
   H     64.25100000    46.18000000    27.54000000
   H     66.18100000    47.21000000    30.41000000
   H     62.36100000    47.10000000    28.45000000
   H     65.14100000    48.39000000    32.32000000
   H     61.34100000    48.37000000    30.26000000
   H     61.75100000    49.48000000    32.28000000
   N     68.03100000    46.77000000    26.32000000
   C     68.91100000    45.77000000    25.75000000
   C     69.04100000    44.62000000    26.74000000
   O     69.27100000    44.80000000    27.93000000
   C     70.27100000    46.39000000    25.47000000
   C     70.22100000    47.62000000    24.58000000
   C     71.14100000    45.29000000    24.86000000
   C     71.54100000    48.37000000    24.38000000
   H     68.37100000    47.38000000    27.04000000
   H     68.48100000    45.40000000    24.82000000
   H     70.76100000    46.75000000    26.38000000
   H     69.50100000    48.30000000    25.04000000
   H     69.71100000    47.31000000    23.66000000
   H     72.13100000    45.63000000    24.56000000
   H     71.30100000    44.47000000    25.56000000
   H     70.72100000    44.96000000    23.91000000
   H     71.77100000    49.04000000    25.21000000
   H     72.37100000    47.68000000    24.25000000
   H     71.42100000    48.95000000    23.47000000
   N     68.73100000    43.38000000    26.36000000
   C     69.00100000    42.14000000    27.07000000
   C     70.31100000    41.52000000    26.63000000
   O     70.88100000    41.86000000    25.59000000
   C     67.78100000    41.25000000    26.85000000
   O     67.75100000    40.85000000    25.50000000
   H     68.33100000    43.24000000    25.44000000
   H     69.01100000    42.39000000    28.14000000
   H     66.90100000    41.84000000    27.10000000
   H     67.79100000    40.37000000    27.50000000
   H     67.31100000    41.56000000    25.04000000
   N     70.92100000    40.61000000    27.38000000
   C     72.15100000    39.90000000    27.06000000
   C     72.13100000    39.24000000    25.69000000
   O     73.12100000    39.29000000    24.97000000
   C     72.35100000    38.79000000    28.08000000
   H     70.44100000    40.30000000    28.21000000
   H     73.02100000    40.54000000    27.19000000
   H     72.14100000    39.23000000    29.06000000
   H     71.60100000    38.01000000    28.07000000
   H     73.30100000    38.25000000    28.05000000
   N     70.97100000    38.71000000    25.28000000
   C     70.70100000    38.19000000    23.95000000
   C     70.90100000    39.16000000    22.80000000
   O     71.36100000    38.80000000    21.72000000
   C     69.26100000    37.68000000    23.98000000
   H     70.29100000    38.60000000    26.02000000
   H     71.32100000    37.31000000    23.82000000
   H     68.83100000    37.36000000    23.03000000
   H     69.10100000    36.93000000    24.76000000
   H     68.49100000    38.37000000    24.34000000
   N     70.64100000    40.45000000    23.03000000
   C     70.66100000    41.54000000    22.08000000
   C     72.10100000    42.04000000    22.02000000
   O     72.64100000    42.32000000    20.95000000
   C     69.66100000    42.59000000    22.57000000
   C     68.24100000    42.08000000    22.37000000
   C     67.20100000    42.99000000    23.02000000
   O     66.95100000    42.92000000    24.25000000
   O     66.52100000    43.81000000    22.38000000
   H     70.39100000    40.68000000    23.98000000
   H     70.45100000    41.16000000    21.08000000
   H     69.71100000    43.49000000    21.96000000
   H     69.73100000    42.91000000    23.61000000
   H     68.11100000    41.07000000    22.76000000
   H     68.02100000    42.06000000    21.31000000
   N     72.82100000    42.06000000    23.15000000
   C     74.24100000    42.30000000    23.18000000
   H     74.74300000    41.58700000    22.52700000
   H     74.44600000    43.31400000    22.83600000
   H     74.60900000    42.18000000    24.19900000
   H     72.25100000    41.87000000    23.96000000
  Ca     64.57000000    44.34000000    24.10000000
   O     64.37000000    43.46000000    26.57000000
   H     63.93000000    42.63000000    26.77000000
   H     64.77000000    43.73000000    27.40000000

Ca 1.70



