%chk=CaMKII_loop3_84.0.chk
%nprocshared=48
%mem=10GB
%nosave
#b3lyp/svp scf=(tight,noincore) Test 
#IOP(5/87=12) Density=Current Pop=(MK,readradii) iop(6/33=2) iop(6/42=6)

CaMKII_loop3_84.0 

   0   1
   C     83.60000000    46.39000000    32.23000000
   C     82.94000000    45.78000000    33.46000000
   O     83.32000000    44.72000000    33.94000000
   H     84.60800000    45.99000000    32.12300000
   H     83.01600000    46.14300000    31.34300000
   H     83.64900000    47.47300000    32.34300000
   N     81.89000000    46.46000000    33.93000000
   C     81.08000000    46.24000000    35.12000000
   C     79.87000000    45.38000000    34.78000000
   O     78.76000000    45.74000000    35.15000000
   C     80.80000000    47.53000000    35.88000000
   C     80.12000000    47.28000000    37.22000000
   O     80.49000000    46.25000000    37.83000000
   O     79.21000000    48.03000000    37.63000000
   H     81.67000000    47.36000000    33.52000000
   H     81.76000000    45.65000000    35.75000000
   H     80.05000000    48.02000000    35.26000000
   H     81.77000000    48.01000000    36.07000000
   N     80.09000000    44.26000000    34.09000000
   C     79.06000000    43.27000000    33.86000000
   C     78.24000000    42.89000000    35.09000000
   O     77.04000000    42.66000000    34.95000000
   C     79.62000000    42.01000000    33.20000000
   C     80.49000000    42.27000000    31.98000000
   C     80.94000000    41.03000000    31.21000000
   C     81.47000000    41.26000000    29.80000000
   N     82.68000000    42.08000000    29.94000000
   H     81.06000000    44.00000000    34.03000000
   H     78.37000000    43.66000000    33.11000000
   H     78.77000000    41.42000000    32.85000000
   H     80.18000000    41.39000000    33.90000000
   H     81.45000000    42.71000000    32.23000000
   H     80.00000000    42.93000000    31.26000000
   H     80.06000000    40.40000000    31.06000000
   H     81.62000000    40.38000000    31.78000000
   H     80.74000000    41.66000000    29.10000000
   H     81.79000000    40.29000000    29.42000000
   H     82.63000000    43.06000000    30.19000000
   H     83.26000000    41.77000000    30.72000000
   H     83.24000000    41.96000000    29.11000000
   N     78.76000000    43.00000000    36.32000000
   C     78.04000000    42.76000000    37.55000000
   C     77.05000000    43.81000000    38.03000000
   O     76.17000000    43.52000000    38.83000000
   C     78.97000000    42.17000000    38.61000000
   C     80.23000000    43.03000000    38.71000000
   O     80.30000000    43.65000000    39.80000000
   O     81.12000000    43.18000000    37.85000000
   H     79.73000000    43.24000000    36.43000000
   H     77.37000000    41.91000000    37.38000000
   H     79.46000000    41.25000000    38.31000000
   H     78.48000000    42.05000000    39.58000000
   N     77.12000000    45.03000000    37.50000000
   C     76.22000000    46.13000000    37.80000000
   C     76.45000000    46.83000000    39.13000000
   O     75.50000000    47.47000000    39.58000000
   H     77.74000000    45.22000000    36.72000000
   H     75.21000000    45.74000000    37.84000000
   H     76.39000000    46.88000000    37.03000000
   N     77.61000000    46.69000000    39.78000000
   C     77.75000000    47.13000000    41.15000000
   C     78.27000000    48.55000000    41.30000000
   O     78.36000000    49.12000000    42.38000000
   C     78.50000000    46.11000000    42.01000000
   C     80.01000000    46.25000000    41.99000000
   N     80.64000000    46.13000000    43.17000000
   O     80.69000000    46.54000000    41.01000000
   H     78.33000000    46.13000000    39.35000000
   H     76.75000000    47.14000000    41.58000000
   H     78.26000000    45.09000000    41.69000000
   H     78.12000000    46.14000000    43.03000000
   H     80.09000000    45.97000000    44.00000000
   H     81.64000000    46.22000000    43.13000000
   N     78.71000000    49.13000000    40.17000000
   C     79.03000000    50.54000000    40.19000000
   C     80.43000000    50.86000000    40.70000000
   O     80.79000000    52.03000000    40.75000000
   H     78.72000000    48.67000000    39.28000000
   H     78.35000000    51.14000000    40.80000000
   H     78.92000000    50.87000000    39.16000000
   N     81.18000000    49.80000000    40.99000000
   C     82.63000000    49.76000000    40.95000000
   C     83.24000000    48.94000000    39.82000000
   O     82.79000000    47.84000000    39.50000000
   C     83.16000000    49.13000000    42.23000000
   C     82.65000000    49.86000000    43.45000000
   C     82.74000000    51.25000000    43.55000000
   C     82.23000000    49.06000000    44.52000000
   C     82.29000000    51.84000000    44.74000000
   C     81.84000000    49.66000000    45.72000000
   C     81.89000000    51.06000000    45.84000000
   O     81.60000000    51.72000000    47.01000000
   H     80.67000000    48.93000000    41.00000000
   H     82.91000000    50.81000000    40.92000000
   H     84.24000000    49.26000000    42.22000000
   H     82.94000000    48.07000000    42.26000000
   H     83.31000000    51.86000000    42.86000000
   H     82.16000000    47.98000000    44.46000000
   H     82.55000000    52.88000000    44.87000000
   H     81.42000000    49.08000000    46.53000000
   H     81.34000000    51.02000000    47.61000000
   N     84.31000000    49.44000000    39.19000000
   C     85.21000000    48.68000000    38.34000000
   C     86.51000000    48.42000000    39.09000000
   O     87.08000000    49.29000000    39.74000000
   C     85.46000000    49.35000000    37.00000000
   C     84.17000000    49.66000000    36.25000000
   C     86.36000000    48.40000000    36.20000000
   C     84.39000000    50.65000000    35.11000000
   H     84.60000000    50.35000000    39.51000000
   H     84.70000000    47.74000000    38.13000000
   H     85.92000000    50.31000000    37.23000000
   H     83.43000000    50.01000000    36.98000000
   H     83.75000000    48.74000000    35.86000000
   H     86.50000000    48.88000000    35.24000000
   H     87.35000000    48.46000000    36.64000000
   H     85.88000000    47.42000000    36.25000000
   H     84.76000000    51.64000000    35.40000000
   H     85.20000000    50.21000000    34.53000000
   H     83.52000000    50.70000000    34.46000000
   N     86.98000000    47.18000000    38.92000000
   C     88.27000000    46.78000000    39.43000000
   C     89.11000000    46.20000000    38.31000000
   O     88.66000000    46.10000000    37.17000000
   C     88.07000000    45.78000000    40.56000000
   O     87.17000000    44.77000000    40.14000000
   H     86.45000000    46.54000000    38.35000000
   H     88.79000000    47.67000000    39.78000000
   H     87.63000000    46.21000000    41.46000000
   H     89.04000000    45.35000000    40.83000000
   H     87.17000000    44.10000000    40.82000000
   N     90.37000000    45.79000000    38.54000000
   C     91.36000000    45.40000000    37.55000000
   C     91.07000000    44.08000000    36.86000000
   O     91.17000000    44.06000000    35.63000000
   C     92.69000000    45.46000000    38.30000000
   H     90.79000000    46.00000000    39.43000000
   H     91.36000000    46.15000000    36.76000000
   H     92.71000000    46.34000000    38.94000000
   H     92.93000000    44.54000000    38.83000000
   H     93.49000000    45.76000000    37.63000000
   N     90.63000000    43.05000000    37.59000000
   C     90.35000000    41.77000000    36.97000000
   C     89.37000000    41.88000000    35.81000000
   O     89.65000000    41.45000000    34.70000000
   C     89.80000000    40.76000000    37.98000000
   H     90.52000000    43.23000000    38.58000000
   H     91.28000000    41.35000000    36.58000000
   H     90.52000000    40.76000000    38.80000000
   H     88.87000000    41.11000000    38.42000000
   H     89.56000000    39.79000000    37.55000000
   N     88.26000000    42.60000000    36.02000000
   C     87.13000000    42.76000000    35.14000000
   C     87.22000000    43.80000000    34.03000000
   O     86.52000000    43.71000000    33.03000000
   C     85.87000000    42.98000000    35.98000000
   C     86.03000000    44.13000000    36.97000000
   C     84.75000000    44.41000000    37.75000000
   O     84.34000000    43.63000000    38.64000000
   O     84.06000000    45.40000000    37.43000000
   H     88.20000000    43.10000000    36.90000000
   H     87.16000000    41.79000000    34.64000000
   H     85.66000000    42.02000000    36.45000000
   H     85.03000000    43.07000000    35.29000000
   H     86.46000000    45.03000000    36.52000000
   H     86.85000000    43.86000000    37.63000000
   N     88.08000000    44.81000000    34.18000000
   C     88.69000000    45.55000000    33.10000000
   H     89.69700000    45.17100000    32.92400000
   H     88.09400000    45.43100000    32.19500000
   H     88.74100000    46.60600000    33.36600000
   H     88.44000000    45.04000000    35.10000000
  Ca     82.26000000    45.24000000    39.26000000
   O     82.79000000    43.47000000    41.35000000
   H     83.16000000    43.65000000    42.21000000
   H     82.47000000    42.57000000    41.41000000

Ca 1.70



