%chk=CaMKII_loop3_103.0.chk
%nprocshared=48
%mem=10GB
%nosave
#b3lyp/svp scf=(tight,noincore) Test 
#IOP(5/87=12) Density=Current Pop=(MK,readradii) iop(6/33=2) iop(6/42=6)

CaMKII_loop3_103.0 

   0   1
   C     81.66000000    64.26000000    33.70000000
   C     81.31000000    64.18000000    35.18000000
   O     81.92000000    63.39000000    35.90000000
   H     82.69800000    63.96100000    33.55600000
   H     81.00900000    63.59300000    33.13500000
   H     81.52500000    65.28300000    33.34900000
   N     80.25000000    64.87000000    35.60000000
   C     79.60000000    64.69000000    36.89000000
   C     78.57000000    63.58000000    36.83000000
   O     77.85000000    63.55000000    35.83000000
   C     78.91000000    65.96000000    37.37000000
   C     78.48000000    65.80000000    38.82000000
   O     77.36000000    65.34000000    39.14000000
   O     79.33000000    66.01000000    39.72000000
   H     79.93000000    65.52000000    34.89000000
   H     80.39000000    64.44000000    37.60000000
   H     78.06000000    66.12000000    36.71000000
   H     79.55000000    66.84000000    37.32000000
   N     78.54000000    62.65000000    37.79000000
   C     77.69000000    61.49000000    37.84000000
   C     76.69000000    61.36000000    38.99000000
   O     75.53000000    61.01000000    38.78000000
   C     78.56000000    60.24000000    37.79000000
   C     77.94000000    58.84000000    37.89000000
   C     78.92000000    57.70000000    37.63000000
   C     80.04000000    57.71000000    38.66000000
   N     80.37000000    56.39000000    39.22000000
   H     79.36000000    62.67000000    38.40000000
   H     77.05000000    61.51000000    36.96000000
   H     79.21000000    60.37000000    38.66000000
   H     79.07000000    60.20000000    36.83000000
   H     77.12000000    58.73000000    37.18000000
   H     77.50000000    58.61000000    38.86000000
   H     79.32000000    57.94000000    36.64000000
   H     78.42000000    56.73000000    37.62000000
   H     79.70000000    58.37000000    39.46000000
   H     81.00000000    58.01000000    38.23000000
   H     79.58000000    55.90000000    39.63000000
   H     80.83000000    55.76000000    38.58000000
   H     81.06000000    56.55000000    39.93000000
   N     77.08000000    61.76000000    40.21000000
   C     76.25000000    61.79000000    41.39000000
   C     75.20000000    62.89000000    41.36000000
   O     74.23000000    62.72000000    42.10000000
   C     77.01000000    61.94000000    42.71000000
   C     78.10000000    63.00000000    42.64000000
   O     77.90000000    64.11000000    42.10000000
   O     79.25000000    62.68000000    43.02000000
   H     78.06000000    61.96000000    40.36000000
   H     75.65000000    60.88000000    41.39000000
   H     77.55000000    61.01000000    42.87000000
   H     76.36000000    62.17000000    43.55000000
   N     75.42000000    64.02000000    40.69000000
   C     74.52000000    65.16000000    40.60000000
   C     75.07000000    66.48000000    41.12000000
   O     74.38000000    67.50000000    41.06000000
   H     76.24000000    64.15000000    40.12000000
   H     73.60000000    65.02000000    41.17000000
   H     74.29000000    65.30000000    39.54000000
   N     76.20000000    66.43000000    41.83000000
   C     76.56000000    67.52000000    42.70000000
   C     77.24000000    68.65000000    41.94000000
   O     77.28000000    69.80000000    42.38000000
   C     77.25000000    67.01000000    43.97000000
   C     78.74000000    66.69000000    43.94000000
   N     79.28000000    65.81000000    44.79000000
   O     79.39000000    66.84000000    42.91000000
   H     76.71000000    65.55000000    41.84000000
   H     75.60000000    67.93000000    43.02000000
   H     76.68000000    66.13000000    44.27000000
   H     77.14000000    67.72000000    44.79000000
   H     78.69000000    65.54000000    45.57000000
   H     80.26000000    65.63000000    44.70000000
   N     77.72000000    68.34000000    40.74000000
   C     78.13000000    69.23000000    39.67000000
   C     79.61000000    69.55000000    39.76000000
   O     80.02000000    70.67000000    39.46000000
   H     77.76000000    67.34000000    40.62000000
   H     77.42000000    70.06000000    39.60000000
   H     77.97000000    68.70000000    38.73000000
   N     80.43000000    68.55000000    40.09000000
   C     81.86000000    68.72000000    40.24000000
   C     82.57000000    67.38000000    40.32000000
   O     82.10000000    66.40000000    40.90000000
   C     82.31000000    69.56000000    41.44000000
   C     81.62000000    69.39000000    42.77000000
   C     80.43000000    70.04000000    43.09000000
   C     82.20000000    68.49000000    43.68000000
   C     79.93000000    69.94000000    44.40000000
   C     81.72000000    68.43000000    45.00000000
   C     80.52000000    69.08000000    45.35000000
   O     79.82000000    68.93000000    46.51000000
   H     80.01000000    67.63000000    40.17000000
   H     82.24000000    69.31000000    39.41000000
   H     82.28000000    70.60000000    41.14000000
   H     83.37000000    69.34000000    41.56000000
   H     80.04000000    70.66000000    42.30000000
   H     83.11000000    67.97000000    43.43000000
   H     79.00000000    70.41000000    44.68000000
   H     82.26000000    67.77000000    45.66000000
   H     80.31000000    68.54000000    47.24000000
   N     83.77000000    67.31000000    39.74000000
   C     84.44000000    66.08000000    39.35000000
   C     85.30000000    65.62000000    40.51000000
   O     86.14000000    66.31000000    41.07000000
   C     85.19000000    66.42000000    38.06000000
   C     84.29000000    66.78000000    36.88000000
   C     85.88000000    65.12000000    37.65000000
   C     84.95000000    67.34000000    35.63000000
   H     84.32000000    68.15000000    39.69000000
   H     83.65000000    65.34000000    39.20000000
   H     85.93000000    67.21000000    38.19000000
   H     83.61000000    67.57000000    37.19000000
   H     83.64000000    65.94000000    36.62000000
   H     86.45000000    65.18000000    36.73000000
   H     86.51000000    64.76000000    38.47000000
   H     85.16000000    64.34000000    37.41000000
   H     85.58000000    66.57000000    35.17000000
   H     84.15000000    67.75000000    35.01000000
   H     85.56000000    68.22000000    35.85000000
   N     85.20000000    64.30000000    40.73000000
   C     86.04000000    63.45000000    41.55000000
   C     86.95000000    62.59000000    40.70000000
   O     86.71000000    62.39000000    39.51000000
   C     85.21000000    62.70000000    42.59000000
   O     84.35000000    61.84000000    41.88000000
   H     84.41000000    63.86000000    40.29000000
   H     86.73000000    64.11000000    42.09000000
   H     84.65000000    63.38000000    43.22000000
   H     85.86000000    62.07000000    43.20000000
   H     83.55000000    62.37000000    41.78000000
   N     88.06000000    62.07000000    41.24000000
   C     88.90000000    61.10000000    40.58000000
   C     88.17000000    59.88000000    40.03000000
   O     88.50000000    59.40000000    38.95000000
   C     90.12000000    60.77000000    41.44000000
   H     88.23000000    62.26000000    42.22000000
   H     89.36000000    61.61000000    39.74000000
   H     90.82000000    60.24000000    40.80000000
   H     90.62000000    61.67000000    41.78000000
   H     89.83000000    60.17000000    42.30000000
   N     87.27000000    59.32000000    40.84000000
   C     86.48000000    58.17000000    40.45000000
   C     85.43000000    58.54000000    39.41000000
   O     85.13000000    57.75000000    38.52000000
   C     85.69000000    57.63000000    41.64000000
   H     87.17000000    59.67000000    41.79000000
   H     87.16000000    57.38000000    40.15000000
   H     84.75000000    58.18000000    41.70000000
   H     85.47000000    56.56000000    41.56000000
   H     86.23000000    57.76000000    42.58000000
   N     84.92000000    59.77000000    39.34000000
   C     84.06000000    60.23000000    38.27000000
   C     84.82000000    60.41000000    36.96000000
   O     84.30000000    60.01000000    35.92000000
   C     83.36000000    61.53000000    38.66000000
   C     82.12000000    61.24000000    39.50000000
   C     81.62000000    62.52000000    40.15000000
   O     82.23000000    63.00000000    41.12000000
   O     80.58000000    63.09000000    39.74000000
   H     84.99000000    60.41000000    40.12000000
   H     83.37000000    59.44000000    37.97000000
   H     83.12000000    62.13000000    37.79000000
   H     84.10000000    62.14000000    39.19000000
   H     82.30000000    60.59000000    40.35000000
   H     81.31000000    60.78000000    38.93000000
   N     86.00000000    61.03000000    36.97000000
   C     86.75000000    61.34000000    35.77000000
   H     87.74300000    60.89700000    35.83800000
   H     86.23100000    60.93500000    34.90200000
   H     86.84100000    62.42100000    35.66700000
   H     86.31000000    61.40000000    37.85000000
  Ca     80.33000000    64.73000000    41.65000000
   O     81.85000000    64.84000000    43.77000000
   H     82.27000000    64.08000000    44.16000000
   H     82.51000000    65.53000000    43.80000000

Ca 1.70



