%chk=CaMKII_loop3_22.0.chk
%nprocshared=48
%mem=10GB
%nosave
#b3lyp/svp scf=(tight,noincore) Test 
#IOP(5/87=12) Density=Current Pop=(MK,readradii) iop(6/33=2) iop(6/42=6)

CaMKII_loop3_22.0 

   0   1
   C     78.48000000    59.61000000    18.77000000
   C     78.12000000    58.34000000    18.01000000
   O     79.02000000    57.75000000    17.42000000
   H     79.36700000    60.06000000    18.32500000
   H     77.65000000    60.31400000    18.71600000
   H     78.68200000    59.36500000    19.81300000
   N     76.89000000    57.85000000    18.13000000
   C     76.47000000    56.62000000    17.47000000
   C     76.21000000    56.88000000    15.99000000
   O     75.11000000    57.29000000    15.62000000
   C     75.22000000    56.06000000    18.13000000
   C     74.77000000    54.80000000    17.40000000
   O     73.61000000    54.38000000    17.63000000
   O     75.50000000    54.22000000    16.57000000
   H     76.11000000    58.38000000    18.49000000
   H     77.27000000    55.88000000    17.49000000
   H     74.44000000    56.82000000    18.09000000
   H     75.40000000    55.83000000    19.18000000
   N     77.16000000    56.49000000    15.14000000
   C     77.53000000    56.77000000    13.77000000
   C     76.69000000    56.05000000    12.73000000
   O     76.36000000    56.65000000    11.70000000
   C     79.06000000    56.71000000    13.72000000
   C     79.75000000    57.53000000    12.63000000
   C     81.17000000    56.99000000    12.50000000
   C     82.10000000    58.04000000    11.89000000
   N     83.47000000    57.56000000    11.67000000
   H     77.90000000    55.98000000    15.61000000
   H     77.21000000    57.79000000    13.57000000
   H     79.42000000    55.68000000    13.66000000
   H     79.42000000    57.11000000    14.66000000
   H     79.86000000    58.56000000    12.99000000
   H     79.16000000    57.55000000    11.72000000
   H     81.03000000    56.10000000    11.88000000
   H     81.59000000    56.70000000    13.46000000
   H     82.08000000    58.95000000    12.48000000
   H     81.57000000    58.19000000    10.95000000
   H     83.98000000    57.14000000    12.43000000
   H     83.50000000    56.90000000    10.90000000
   H     84.06000000    58.32000000    11.39000000
   N     76.28000000    54.80000000    12.96000000
   C     75.40000000    54.03000000    12.10000000
   C     73.99000000    54.09000000    12.67000000
   O     73.04000000    53.83000000    11.94000000
   C     75.89000000    52.60000000    11.94000000
   C     75.96000000    51.85000000    13.26000000
   O     75.85000000    52.46000000    14.34000000
   O     76.29000000    50.65000000    13.16000000
   H     76.51000000    54.39000000    13.85000000
   H     75.35000000    54.41000000    11.08000000
   H     76.89000000    52.70000000    11.50000000
   H     75.19000000    52.02000000    11.32000000
   N     73.85000000    54.50000000    13.93000000
   C     72.63000000    54.84000000    14.64000000
   C     71.96000000    53.65000000    15.30000000
   O     70.76000000    53.71000000    15.57000000
   H     74.65000000    54.56000000    14.54000000
   H     71.89000000    55.21000000    13.92000000
   H     72.83000000    55.68000000    15.30000000
   N     72.75000000    52.59000000    15.44000000
   C     72.36000000    51.29000000    15.95000000
   C     71.73000000    51.21000000    17.34000000
   O     71.02000000    50.27000000    17.68000000
   C     73.42000000    50.25000000    15.63000000
   C     74.36000000    50.03000000    16.80000000
   N     74.62000000    48.79000000    17.24000000
   O     74.95000000    51.01000000    17.25000000
   H     73.65000000    52.59000000    14.99000000
   H     71.44000000    51.08000000    15.40000000
   H     74.06000000    50.51000000    14.78000000
   H     72.87000000    49.34000000    15.36000000
   H     74.13000000    48.03000000    16.80000000
   H     75.39000000    48.65000000    17.87000000
   N     72.04000000    52.16000000    18.23000000
   C     71.69000000    52.27000000    19.63000000
   C     72.83000000    52.37000000    20.63000000
   O     72.58000000    52.45000000    21.83000000
   H     72.65000000    52.91000000    17.95000000
   H     71.20000000    51.36000000    19.96000000
   H     71.01000000    53.12000000    19.75000000
   N     74.04000000    52.37000000    20.06000000
   C     75.26000000    52.08000000    20.79000000
   C     76.46000000    52.84000000    20.24000000
   O     76.74000000    53.00000000    19.05000000
   C     75.49000000    50.57000000    20.84000000
   C     74.38000000    49.73000000    21.43000000
   C     74.31000000    49.49000000    22.80000000
   C     73.46000000    49.09000000    20.59000000
   C     73.35000000    48.62000000    23.34000000
   C     72.43000000    48.29000000    21.10000000
   C     72.34000000    48.13000000    22.50000000
   O     71.44000000    47.24000000    23.02000000
   H     74.16000000    52.33000000    19.06000000
   H     75.03000000    52.45000000    21.79000000
   H     76.37000000    50.38000000    21.46000000
   H     75.70000000    50.25000000    19.83000000
   H     75.07000000    49.87000000    23.48000000
   H     73.49000000    49.29000000    19.53000000
   H     73.25000000    48.50000000    24.41000000
   H     71.75000000    47.87000000    20.38000000
   H     71.02000000    46.80000000    22.27000000
   N     77.26000000    53.31000000    21.20000000
   C     78.50000000    54.03000000    21.01000000
   C     79.56000000    53.02000000    21.41000000
   O     79.76000000    52.57000000    22.53000000
   C     78.54000000    55.22000000    21.97000000
   C     77.43000000    56.22000000    21.68000000
   C     79.87000000    55.96000000    21.79000000
   C     77.16000000    57.32000000    22.70000000
   H     76.95000000    53.20000000    22.16000000
   H     78.68000000    54.31000000    19.97000000
   H     78.36000000    54.88000000    22.99000000
   H     76.47000000    55.72000000    21.55000000
   H     77.50000000    56.59000000    20.66000000
   H     79.89000000    56.26000000    20.74000000
   H     79.92000000    56.86000000    22.41000000
   H     80.75000000    55.34000000    21.94000000
   H     78.03000000    57.98000000    22.62000000
   H     76.38000000    57.97000000    22.29000000
   H     76.92000000    56.95000000    23.70000000
   N     80.34000000    52.76000000    20.36000000
   C     81.63000000    52.11000000    20.44000000
   C     82.79000000    53.08000000    20.55000000
   O     82.75000000    54.26000000    20.20000000
   C     81.77000000    51.14000000    19.27000000
   O     81.90000000    51.90000000    18.09000000
   H     80.14000000    53.11000000    19.43000000
   H     81.68000000    51.55000000    21.37000000
   H     80.94000000    50.44000000    19.15000000
   H     82.74000000    50.64000000    19.38000000
   H     81.03000000    52.12000000    17.74000000
   N     83.91000000    52.59000000    21.08000000
   C     85.18000000    53.28000000    21.23000000
   C     85.61000000    54.07000000    20.00000000
   O     85.79000000    55.28000000    20.10000000
   C     86.23000000    52.28000000    21.68000000
   H     83.91000000    51.64000000    21.42000000
   H     85.09000000    54.01000000    22.03000000
   H     86.06000000    51.68000000    22.57000000
   H     86.50000000    51.68000000    20.81000000
   H     87.13000000    52.85000000    21.93000000
   N     85.63000000    53.35000000    18.88000000
   C     86.02000000    53.94000000    17.61000000
   C     85.17000000    55.11000000    17.12000000
   O     85.66000000    55.96000000    16.39000000
   C     86.17000000    52.77000000    16.64000000
   H     85.38000000    52.37000000    18.79000000
   H     87.02000000    54.34000000    17.77000000
   H     85.15000000    52.47000000    16.42000000
   H     86.40000000    53.07000000    15.62000000
   H     86.80000000    51.92000000    16.90000000
   N     83.87000000    55.08000000    17.43000000
   C     82.95000000    56.15000000    17.12000000
   C     83.08000000    57.35000000    18.04000000
   O     83.14000000    58.50000000    17.60000000
   C     81.49000000    55.71000000    17.26000000
   C     81.10000000    54.67000000    16.21000000
   C     79.79000000    54.00000000    16.59000000
   O     79.72000000    53.30000000    17.62000000
   O     78.79000000    54.15000000    15.85000000
   H     83.64000000    54.44000000    18.18000000
   H     83.04000000    56.56000000    16.12000000
   H     80.83000000    56.56000000    17.13000000
   H     81.38000000    55.33000000    18.28000000
   H     81.89000000    53.93000000    16.20000000
   H     81.04000000    55.10000000    15.21000000
   N     83.16000000    57.10000000    19.35000000
   C     83.50000000    58.16000000    20.29000000
   H     84.36600000    58.70900000    19.92000000
   H     82.65500000    58.84100000    20.39200000
   H     83.73500000    57.72400000    21.26100000
   H     83.10000000    56.16000000    19.71000000
  Ca     77.22000000    52.27000000    16.51000000
   O     76.96000000    49.85000000    15.41000000
   H     76.95000000    48.90000000    15.32000000
   H     76.55000000    50.17000000    14.60000000

Ca 1.70



