%chk=CaMKII_loop3_21.0.chk
%nprocshared=48
%mem=10GB
%nosave
#b3lyp/svp scf=(tight,noincore) Test 
#IOP(5/87=12) Density=Current Pop=(MK,readradii) iop(6/33=2) iop(6/42=6)

CaMKII_loop3_21.0 

   0   1
   C     81.64000000    55.58000000    19.31000000
   C     81.77000000    54.21000000    18.66000000
   O     82.77000000    53.98000000    17.99000000
   H     80.62100000    55.71500000    19.67200000
   H     82.33500000    55.65300000    20.14700000
   H     81.87000000    56.35400000    18.57700000
   N     80.76000000    53.35000000    18.84000000
   C     80.73000000    52.08000000    18.15000000
   C     80.36000000    52.25000000    16.68000000
   O     79.52000000    53.10000000    16.36000000
   C     79.84000000    51.16000000    18.97000000
   C     79.73000000    49.74000000    18.43000000
   O     78.70000000    49.06000000    18.65000000
   O     80.65000000    49.29000000    17.72000000
   H     79.94000000    53.72000000    19.29000000
   H     81.74000000    51.69000000    18.23000000
   H     78.91000000    51.72000000    19.04000000
   H     80.34000000    51.08000000    19.94000000
   N     81.14000000    51.54000000    15.87000000
   C     81.12000000    51.71000000    14.43000000
   C     80.25000000    50.65000000    13.77000000
   O     79.89000000    50.89000000    12.62000000
   C     82.50000000    51.81000000    13.80000000
   C     83.25000000    53.11000000    14.07000000
   C     84.63000000    53.30000000    13.46000000
   C     84.68000000    53.58000000    11.96000000
   N     86.05000000    53.78000000    11.45000000
   H     81.79000000    50.90000000    16.31000000
   H     80.60000000    52.66000000    14.33000000
   H     82.35000000    51.73000000    12.73000000
   H     83.10000000    50.92000000    14.02000000
   H     83.30000000    53.24000000    15.15000000
   H     82.59000000    53.89000000    13.68000000
   H     85.35000000    52.51000000    13.66000000
   H     84.97000000    54.20000000    13.97000000
   H     84.17000000    54.54000000    11.87000000
   H     84.07000000    52.87000000    11.40000000
   H     86.02000000    53.86000000    10.45000000
   H     86.59000000    54.46000000    11.97000000
   H     86.54000000    52.92000000    11.65000000
   N     80.02000000    49.57000000    14.52000000
   C     79.53000000    48.32000000    13.98000000
   C     78.32000000    47.71000000    14.66000000
   O     77.51000000    47.05000000    14.01000000
   C     80.69000000    47.33000000    13.84000000
   C     81.54000000    47.16000000    15.09000000
   O     82.71000000    47.59000000    15.08000000
   O     81.00000000    46.80000000    16.16000000
   H     80.47000000    49.59000000    15.43000000
   H     79.14000000    48.65000000    13.01000000
   H     81.34000000    47.58000000    13.01000000
   H     80.27000000    46.35000000    13.62000000
   N     78.11000000    48.07000000    15.93000000
   C     76.83000000    47.75000000    16.54000000
   C     76.88000000    46.43000000    17.29000000
   O     75.83000000    45.82000000    17.46000000
   H     78.76000000    48.63000000    16.44000000
   H     76.01000000    47.68000000    15.83000000
   H     76.60000000    48.48000000    17.32000000
   N     78.07000000    46.05000000    17.78000000
   C     78.31000000    44.84000000    18.54000000
   C     78.18000000    45.12000000    20.03000000
   O     78.21000000    44.21000000    20.86000000
   C     79.54000000    44.09000000    18.06000000
   C     80.92000000    44.53000000    18.54000000
   N     81.88000000    43.61000000    18.64000000
   O     81.14000000    45.68000000    18.90000000
   H     78.86000000    46.65000000    17.62000000
   H     77.49000000    44.14000000    18.41000000
   H     79.44000000    43.96000000    16.98000000
   H     79.42000000    43.07000000    18.44000000
   H     81.70000000    42.63000000    18.44000000
   H     82.77000000    43.92000000    19.00000000
   N     78.07000000    46.39000000    20.43000000
   C     77.81000000    46.82000000    21.79000000
   C     79.06000000    47.06000000    22.64000000
   O     78.91000000    47.41000000    23.81000000
   H     78.01000000    47.15000000    19.77000000
   H     77.10000000    46.10000000    22.18000000
   H     77.30000000    47.78000000    21.69000000
   N     80.24000000    47.03000000    22.02000000
   C     81.59000000    47.25000000    22.51000000
   C     82.45000000    48.26000000    21.77000000
   O     82.60000000    48.02000000    20.57000000
   C     82.30000000    45.90000000    22.46000000
   C     81.59000000    44.72000000    23.08000000
   C     81.80000000    44.49000000    24.44000000
   C     80.82000000    43.83000000    22.32000000
   C     81.30000000    43.34000000    25.06000000
   C     80.35000000    42.66000000    22.94000000
   C     80.62000000    42.37000000    24.30000000
   O     80.19000000    41.23000000    24.90000000
   H     80.21000000    46.72000000    21.07000000
   H     81.54000000    47.44000000    23.58000000
   H     83.29000000    46.09000000    22.87000000
   H     82.45000000    45.72000000    21.40000000
   H     82.48000000    45.10000000    25.02000000
   H     80.66000000    44.02000000    21.27000000
   H     81.49000000    43.04000000    26.08000000
   H     79.72000000    42.03000000    22.33000000
   H     79.77000000    40.67000000    24.25000000
   N     83.03000000    49.28000000    22.40000000
   C     83.98000000    50.16000000    21.77000000
   C     85.44000000    49.80000000    22.03000000
   O     85.80000000    49.47000000    23.16000000
   C     83.81000000    51.60000000    22.26000000
   C     82.35000000    51.95000000    22.51000000
   C     84.50000000    52.71000000    21.47000000
   C     82.31000000    53.02000000    23.60000000
   H     83.01000000    49.24000000    23.41000000
   H     83.82000000    50.21000000    20.69000000
   H     84.28000000    51.62000000    23.25000000
   H     81.66000000    51.16000000    22.80000000
   H     81.99000000    52.42000000    21.59000000
   H     85.56000000    52.50000000    21.42000000
   H     84.03000000    52.82000000    20.49000000
   H     84.56000000    53.69000000    21.93000000
   H     82.66000000    52.60000000    24.55000000
   H     82.98000000    53.88000000    23.54000000
   H     81.27000000    53.35000000    23.64000000
   N     86.26000000    49.90000000    20.99000000
   C     87.66000000    49.52000000    20.90000000
   C     88.57000000    50.73000000    20.70000000
   O     88.09000000    51.79000000    20.32000000
   C     87.81000000    48.56000000    19.72000000
   O     87.57000000    49.24000000    18.51000000
   H     85.89000000    50.36000000    20.17000000
   H     88.06000000    49.08000000    21.81000000
   H     87.12000000    47.74000000    19.88000000
   H     88.82000000    48.16000000    19.86000000
   H     86.62000000    49.17000000    18.38000000
   N     89.83000000    50.68000000    21.14000000
   C     90.68000000    51.85000000    21.10000000
   C     90.74000000    52.54000000    19.75000000
   O     90.68000000    53.77000000    19.82000000
   C     92.04000000    51.47000000    21.69000000
   H     90.26000000    49.77000000    21.24000000
   H     90.20000000    52.59000000    21.74000000
   H     92.67000000    52.32000000    21.96000000
   H     91.88000000    50.85000000    22.57000000
   H     92.68000000    50.96000000    20.97000000
   N     90.85000000    51.82000000    18.63000000
   C     90.77000000    52.38000000    17.30000000
   C     89.45000000    53.08000000    16.98000000
   O     89.39000000    54.02000000    16.19000000
   C     91.19000000    51.38000000    16.23000000
   H     90.71000000    50.82000000    18.73000000
   H     91.54000000    53.14000000    17.34000000
   H     91.18000000    51.86000000    15.25000000
   H     92.14000000    50.85000000    16.36000000
   H     90.47000000    50.57000000    16.16000000
   N     88.35000000    52.72000000    17.63000000
   C     87.03000000    53.31000000    17.53000000
   C     86.85000000    54.60000000    18.32000000
   O     86.45000000    55.60000000    17.73000000
   C     85.94000000    52.32000000    17.94000000
   C     85.55000000    51.35000000    16.83000000
   C     84.63000000    50.23000000    17.29000000
   O     83.49000000    50.09000000    16.79000000
   O     84.95000000    49.46000000    18.23000000
   H     88.50000000    52.07000000    18.39000000
   H     86.83000000    53.63000000    16.51000000
   H     85.02000000    52.89000000    18.06000000
   H     86.06000000    51.90000000    18.94000000
   H     86.48000000    50.92000000    16.46000000
   H     85.14000000    51.74000000    15.90000000
   N     87.28000000    54.73000000    19.58000000
   C     87.34000000    55.97000000    20.32000000
   H     87.82400000    56.73300000    19.71100000
   H     86.33000000    56.29300000    20.57100000
   H     87.91200000    55.82000000    21.23600000
   H     87.73000000    53.96000000    20.06000000
  Ca     82.70000000    47.74000000    17.81000000
   O     84.20000000    45.90000000    19.13000000
   H     84.69000000    45.90000000    19.95000000
   H     84.43000000    45.08000000    18.71000000

Ca 1.70



