%chk=CaMKII_loop3_15.0.chk
%nprocshared=48
%mem=10GB
%nosave
#b3lyp/svp scf=(tight,noincore) Test 
#IOP(5/87=12) Density=Current Pop=(MK,readradii) iop(6/33=2) iop(6/42=6)

CaMKII_loop3_15.0 

   0   1
   C     76.38000000    54.89000000    16.68000000
   C     76.34000000    53.51000000    16.05000000
   O     77.43000000    53.06000000    15.72000000
   H     76.74900000    55.61100000    15.95100000
   H     75.37600000    55.17500000    16.99600000
   H     77.04400000    54.87600000    17.54500000
   N     75.20000000    52.82000000    15.90000000
   C     75.10000000    51.55000000    15.20000000
   C     74.78000000    51.70000000    13.72000000
   O     73.64000000    51.57000000    13.28000000
   C     74.01000000    50.74000000    15.89000000
   C     73.69000000    49.38000000    15.29000000
   O     72.51000000    48.99000000    15.47000000
   O     74.56000000    48.76000000    14.64000000
   H     74.37000000    53.28000000    16.24000000
   H     76.08000000    51.08000000    15.26000000
   H     73.06000000    51.27000000    15.88000000
   H     74.38000000    50.48000000    16.88000000
   N     75.74000000    52.30000000    13.02000000
   C     75.75000000    52.65000000    11.61000000
   C     75.13000000    51.61000000    10.68000000
   O     74.65000000    52.08000000     9.66000000
   C     77.21000000    52.91000000    11.26000000
   C     77.45000000    53.53000000     9.89000000
   C     78.97000000    53.62000000     9.82000000
   C     79.47000000    54.33000000     8.57000000
   N     80.90000000    54.03000000     8.41000000
   H     76.37000000    52.84000000    13.59000000
   H     75.12000000    53.53000000    11.45000000
   H     77.76000000    51.97000000    11.37000000
   H     77.55000000    53.54000000    12.08000000
   H     77.04000000    54.54000000     9.80000000
   H     77.12000000    52.83000000     9.12000000
   H     79.53000000    52.70000000    10.03000000
   H     79.24000000    54.32000000    10.62000000
   H     79.17000000    55.38000000     8.63000000
   H     78.98000000    53.95000000     7.67000000
   H     81.49000000    54.60000000     9.00000000
   H     81.10000000    53.05000000     8.55000000
   H     81.12000000    54.19000000     7.44000000
   N     75.33000000    50.30000000    10.88000000
   C     74.62000000    49.28000000    10.13000000
   C     73.26000000    48.87000000    10.67000000
   O     72.47000000    48.35000000     9.88000000
   C     75.47000000    48.06000000     9.80000000
   C     75.89000000    47.35000000    11.08000000
   O     77.11000000    47.43000000    11.36000000
   O     75.06000000    46.83000000    11.86000000
   H     75.65000000    49.97000000    11.78000000
   H     74.43000000    49.68000000     9.13000000
   H     76.38000000    48.34000000     9.28000000
   H     74.96000000    47.37000000     9.12000000
   N     72.86000000    49.15000000    11.91000000
   C     71.53000000    48.91000000    12.42000000
   C     71.23000000    47.47000000    12.82000000
   O     70.12000000    46.96000000    12.69000000
   H     73.46000000    49.60000000    12.59000000
   H     70.75000000    49.28000000    11.76000000
   H     71.37000000    49.55000000    13.29000000
   N     72.25000000    46.74000000    13.28000000
   C     72.18000000    45.41000000    13.86000000
   C     71.85000000    45.24000000    15.33000000
   O     71.64000000    44.15000000    15.86000000
   C     73.43000000    44.62000000    13.45000000
   C     74.51000000    44.61000000    14.51000000
   N     74.99000000    43.39000000    14.79000000
   O     74.84000000    45.68000000    15.03000000
   H     73.10000000    47.25000000    13.49000000
   H     71.39000000    44.93000000    13.28000000
   H     73.82000000    45.05000000    12.52000000
   H     73.17000000    43.58000000    13.27000000
   H     74.68000000    42.59000000    14.26000000
   H     75.66000000    43.20000000    15.52000000
   N     71.73000000    46.35000000    16.05000000
   C     71.60000000    46.36000000    17.50000000
   C     72.88000000    46.54000000    18.31000000
   O     72.93000000    46.24000000    19.50000000
   H     71.99000000    47.20000000    15.57000000
   H     71.21000000    45.41000000    17.86000000
   H     70.93000000    47.13000000    17.88000000
   N     74.00000000    46.94000000    17.69000000
   C     75.30000000    46.93000000    18.32000000
   C     76.19000000    48.02000000    17.74000000
   O     76.45000000    48.12000000    16.54000000
   C     76.02000000    45.59000000    18.25000000
   C     75.44000000    44.50000000    19.13000000
   C     76.05000000    44.16000000    20.34000000
   C     74.32000000    43.76000000    18.75000000
   C     75.53000000    43.20000000    21.22000000
   C     73.80000000    42.74000000    19.57000000
   C     74.42000000    42.44000000    20.79000000
   O     74.05000000    41.32000000    21.48000000
   H     73.90000000    47.28000000    16.75000000
   H     75.29000000    47.15000000    19.39000000
   H     77.07000000    45.77000000    18.44000000
   H     75.99000000    45.18000000    17.23000000
   H     76.85000000    44.81000000    20.68000000
   H     73.88000000    44.03000000    17.81000000
   H     76.01000000    43.02000000    22.17000000
   H     72.96000000    42.15000000    19.23000000
   H     73.27000000    40.92000000    21.11000000
   N     76.71000000    48.87000000    18.63000000
   C     77.88000000    49.70000000    18.39000000
   C     79.14000000    48.86000000    18.49000000
   O     79.38000000    48.14000000    19.46000000
   C     77.99000000    50.91000000    19.31000000
   C     76.70000000    51.61000000    19.71000000
   C     79.07000000    51.89000000    18.86000000
   C     76.90000000    52.46000000    20.97000000
   H     76.33000000    48.75000000    19.55000000
   H     77.78000000    50.04000000    17.36000000
   H     78.32000000    50.50000000    20.26000000
   H     75.94000000    50.90000000    20.02000000
   H     76.27000000    52.16000000    18.87000000
   H     79.98000000    51.29000000    18.82000000
   H     78.86000000    52.40000000    17.92000000
   H     79.15000000    52.74000000    19.55000000
   H     77.53000000    53.33000000    20.82000000
   H     75.90000000    52.78000000    21.24000000
   H     77.47000000    51.94000000    21.74000000
   N     79.97000000    49.05000000    17.46000000
   C     81.33000000    48.55000000    17.34000000
   C     82.33000000    49.70000000    17.25000000
   O     81.92000000    50.84000000    17.04000000
   C     81.50000000    47.57000000    16.19000000
   O     81.48000000    48.28000000    14.97000000
   H     79.63000000    49.68000000    16.75000000
   H     81.56000000    48.06000000    18.29000000
   H     80.73000000    46.80000000    16.17000000
   H     82.44000000    47.05000000    16.37000000
   H     80.56000000    48.33000000    14.71000000
   N     83.62000000    49.42000000    17.46000000
   C     84.72000000    50.34000000    17.31000000
   C     84.86000000    51.02000000    15.95000000
   O     85.00000000    52.24000000    15.96000000
   C     86.05000000    49.82000000    17.85000000
   H     83.89000000    48.51000000    17.80000000
   H     84.33000000    51.11000000    17.98000000
   H     86.94000000    50.43000000    17.71000000
   H     86.00000000    49.56000000    18.90000000
   H     86.20000000    48.84000000    17.40000000
   N     84.76000000    50.31000000    14.83000000
   C     84.57000000    50.93000000    13.54000000
   C     83.38000000    51.88000000    13.41000000
   O     83.49000000    52.89000000    12.72000000
   C     84.37000000    49.77000000    12.57000000
   H     84.75000000    49.30000000    14.74000000
   H     85.46000000    51.54000000    13.34000000
   H     83.68000000    49.04000000    12.99000000
   H     83.90000000    50.17000000    11.67000000
   H     85.36000000    49.36000000    12.37000000
   N     82.25000000    51.69000000    14.10000000
   C     81.03000000    52.45000000    13.90000000
   C     80.93000000    53.64000000    14.84000000
   O     80.50000000    54.69000000    14.37000000
   C     79.83000000    51.53000000    14.15000000
   C     79.66000000    50.51000000    13.03000000
   C     78.60000000    49.48000000    13.39000000
   O     78.91000000    48.34000000    13.81000000
   O     77.40000000    49.84000000    13.39000000
   H     82.23000000    51.02000000    14.85000000
   H     80.98000000    52.79000000    12.87000000
   H     78.96000000    52.18000000    14.04000000
   H     79.84000000    51.13000000    15.17000000
   H     80.62000000    50.00000000    12.90000000
   H     79.63000000    50.99000000    12.06000000
   N     81.43000000    53.57000000    16.07000000
   C     81.78000000    54.69000000    16.93000000
   H     82.65700000    55.19700000    16.52700000
   H     80.94500000    55.38900000    16.97500000
   H     82.00200000    54.32400000    17.93200000
   H     81.77000000    52.68000000    16.39000000
  Ca     76.53000000    47.36000000    14.08000000
   O     78.17000000    46.01000000    15.77000000
   H     78.48000000    46.08000000    16.67000000
   H     78.66000000    45.28000000    15.39000000

Ca 1.70



