%chk=CaMKII_loop3_5.0.chk
%nprocshared=48
%mem=10GB
%nosave
#b3lyp/svp scf=(tight,noincore) Test 
#IOP(5/87=12) Density=Current Pop=(MK,readradii) iop(6/33=2) iop(6/42=6)

CaMKII_loop3_5.0 

   0   1
   C     84.21000000    67.56000000    28.91000000
   C     83.57000000    67.32000000    30.27000000
   O     84.00000000    66.42000000    30.98000000
   H     85.22400000    67.16000000    28.91100000
   H     83.62300000    67.06100000    28.13900000
   H     84.24300000    68.63000000    28.70700000
   N     82.51000000    68.04000000    30.65000000
   C     81.85000000    67.90000000    31.93000000
   C     80.96000000    66.66000000    31.90000000
   O     79.85000000    66.63000000    31.37000000
   C     81.06000000    69.19000000    32.16000000
   C     80.25000000    69.18000000    33.44000000
   O     80.42000000    68.21000000    34.20000000
   O     79.64000000    70.24000000    33.71000000
   H     82.27000000    68.77000000    29.99000000
   H     82.62000000    67.84000000    32.70000000
   H     80.41000000    69.23000000    31.29000000
   H     81.73000000    70.05000000    32.26000000
   N     81.45000000    65.52000000    32.40000000
   C     80.96000000    64.17000000    32.20000000
   C     79.53000000    63.96000000    32.69000000
   O     78.81000000    63.23000000    32.02000000
   C     81.88000000    63.21000000    32.94000000
   C     81.82000000    61.81000000    32.33000000
   C     82.75000000    60.90000000    33.12000000
   C     82.49000000    59.45000000    32.75000000
   N     83.37000000    58.52000000    33.49000000
   H     82.22000000    65.62000000    33.04000000
   H     81.05000000    64.04000000    31.12000000
   H     81.48000000    63.12000000    33.95000000
   H     82.93000000    63.51000000    32.94000000
   H     82.03000000    61.84000000    31.26000000
   H     80.80000000    61.44000000    32.27000000
   H     82.64000000    61.14000000    34.18000000
   H     83.81000000    61.11000000    32.92000000
   H     82.59000000    59.33000000    31.67000000
   H     81.45000000    59.23000000    33.00000000
   H     83.13000000    57.55000000    33.40000000
   H     84.36000000    58.68000000    33.42000000
   H     83.19000000    58.76000000    34.45000000
   N     79.14000000    64.60000000    33.80000000
   C     77.87000000    64.58000000    34.49000000
   C     77.01000000    65.81000000    34.24000000
   O     75.90000000    65.85000000    34.76000000
   C     78.01000000    64.40000000    35.99000000
   C     78.88000000    65.41000000    36.73000000
   O     79.70000000    66.07000000    36.06000000
   O     78.77000000    65.50000000    37.98000000
   H     79.77000000    65.31000000    34.13000000
   H     77.24000000    63.72000000    34.23000000
   H     78.45000000    63.43000000    36.19000000
   H     77.00000000    64.46000000    36.40000000
   N     77.58000000    66.83000000    33.59000000
   C     76.95000000    68.14000000    33.48000000
   C     76.68000000    68.96000000    34.74000000
   O     75.51000000    69.16000000    35.06000000
   H     78.54000000    66.75000000    33.30000000
   H     76.04000000    68.10000000    32.90000000
   H     77.60000000    68.78000000    32.89000000
   N     77.66000000    69.33000000    35.56000000
   C     77.51000000    70.10000000    36.78000000
   C     78.23000000    71.43000000    36.94000000
   O     78.22000000    72.13000000    37.95000000
   C     77.92000000    69.19000000    37.93000000
   C     79.41000000    69.16000000    38.22000000
   N     79.79000000    68.83000000    39.45000000
   O     80.31000000    69.42000000    37.41000000
   H     78.59000000    69.16000000    35.20000000
   H     76.44000000    70.21000000    36.99000000
   H     77.60000000    68.16000000    37.76000000
   H     77.41000000    69.59000000    38.81000000
   H     79.13000000    68.45000000    40.11000000
   H     80.74000000    68.53000000    39.64000000
   N     78.88000000    71.82000000    35.84000000
   C     79.41000000    73.14000000    35.58000000
   C     80.89000000    73.24000000    35.94000000
   O     81.53000000    74.24000000    35.63000000
   H     78.79000000    71.28000000    35.00000000
   H     78.88000000    73.83000000    36.24000000
   H     79.16000000    73.32000000    34.53000000
   N     81.48000000    72.08000000    36.23000000
   C     82.90000000    71.96000000    36.50000000
   C     83.50000000    70.80000000    35.73000000
   O     82.83000000    69.77000000    35.73000000
   C     83.12000000    71.80000000    38.01000000
   C     82.59000000    72.96000000    38.81000000
   C     83.24000000    74.19000000    38.64000000
   C     81.42000000    72.78000000    39.56000000
   C     82.61000000    75.33000000    39.14000000
   C     80.89000000    73.95000000    40.14000000
   C     81.41000000    75.23000000    39.87000000
   O     80.89000000    76.32000000    40.49000000
   H     80.96000000    71.24000000    36.42000000
   H     83.46000000    72.87000000    36.29000000
   H     84.21000000    71.76000000    38.06000000
   H     82.62000000    70.89000000    38.33000000
   H     84.11000000    74.18000000    38.00000000
   H     81.00000000    71.81000000    39.75000000
   H     82.99000000    76.34000000    39.04000000
   H     80.01000000    73.90000000    40.75000000
   H     80.04000000    76.25000000    40.93000000
   N     84.73000000    70.82000000    35.21000000
   C     85.49000000    69.64000000    34.84000000
   C     86.45000000    69.28000000    35.96000000
   O     87.14000000    70.18000000    36.45000000
   C     86.20000000    69.80000000    33.50000000
   C     85.44000000    70.64000000    32.48000000
   C     86.47000000    68.41000000    32.94000000
   C     86.33000000    71.27000000    31.41000000
   H     85.20000000    71.70000000    35.06000000
   H     84.80000000    68.82000000    34.67000000
   H     87.10000000    70.39000000    33.69000000
   H     85.06000000    71.50000000    33.04000000
   H     84.51000000    70.18000000    32.14000000
   H     85.56000000    67.82000000    32.78000000
   H     87.08000000    68.44000000    32.04000000
   H     87.16000000    67.86000000    33.58000000
   H     85.77000000    72.04000000    30.87000000
   H     87.18000000    71.72000000    31.92000000
   H     86.76000000    70.55000000    30.72000000
   N     86.67000000    67.98000000    36.16000000
   C     87.77000000    67.46000000    36.95000000
   C     88.83000000    66.64000000    36.21000000
   O     88.70000000    66.26000000    35.05000000
   C     87.22000000    66.73000000    38.17000000
   O     86.50000000    65.61000000    37.71000000
   H     86.18000000    67.24000000    35.67000000
   H     88.31000000    68.28000000    37.43000000
   H     86.58000000    67.39000000    38.75000000
   H     88.06000000    66.44000000    38.81000000
   H     85.83000000    65.39000000    38.36000000
   N     90.00000000    66.29000000    36.73000000
   C     90.98000000    65.47000000    36.04000000
   C     90.51000000    64.06000000    35.72000000
   O     90.83000000    63.60000000    34.63000000
   C     92.28000000    65.44000000    36.83000000
   H     90.30000000    66.63000000    37.63000000
   H     91.29000000    65.85000000    35.07000000
   H     92.15000000    65.08000000    37.85000000
   H     93.06000000    64.78000000    36.46000000
   H     92.64000000    66.47000000    36.89000000
   N     89.68000000    63.37000000    36.52000000
   C     89.02000000    62.12000000    36.23000000
   C     88.04000000    62.16000000    35.07000000
   O     87.91000000    61.19000000    34.33000000
   C     88.32000000    61.57000000    37.47000000
   H     89.46000000    63.75000000    37.43000000
   H     89.86000000    61.47000000    35.98000000
   H     88.90000000    61.59000000    38.39000000
   H     87.47000000    62.25000000    37.58000000
   H     87.93000000    60.60000000    37.14000000
   N     87.55000000    63.34000000    34.71000000
   C     86.61000000    63.51000000    33.62000000
   C     87.35000000    63.82000000    32.33000000
   O     86.92000000    63.35000000    31.28000000
   C     85.70000000    64.70000000    33.92000000
   C     84.71000000    64.25000000    34.98000000
   C     83.65000000    65.31000000    35.26000000
   O     82.50000000    64.99000000    35.62000000
   O     83.94000000    66.53000000    35.22000000
   H     87.67000000    64.15000000    35.31000000
   H     86.07000000    62.57000000    33.50000000
   H     85.05000000    64.95000000    33.08000000
   H     86.27000000    65.53000000    34.33000000
   H     85.19000000    64.04000000    35.94000000
   H     84.23000000    63.34000000    34.63000000
   N     88.34000000    64.71000000    32.36000000
   C     89.19000000    65.04000000    31.23000000
   H     90.16300000    64.56600000    31.35700000
   H     88.72900000    64.68000000    30.31000000
   H     89.31800000    66.12100000    31.17400000
   H     88.44000000    65.25000000    33.21000000
  Ca     81.81000000    67.35000000    36.27000000
   O     83.78000000    67.91000000    37.90000000
   H     84.16000000    68.60000000    38.44000000
   H     84.17000000    67.10000000    38.23000000

Ca 1.70



