%chk=CaMKII_loop3_23.0.chk
%nprocshared=48
%mem=10GB
%nosave
#b3lyp/svp scf=(tight,noincore) Test 
#IOP(5/87=12) Density=Current Pop=(MK,readradii) iop(6/33=2) iop(6/42=6)

CaMKII_loop3_23.0 

   0   1
   C     88.05000000    65.31000000    32.10000000
   C     87.99000000    65.30000000    33.62000000
   O     88.86000000    64.63000000    34.18000000
   H     89.01800000    65.69400000    31.77800000
   H     87.91900000    64.29500000    31.72400000
   H     87.25800000    65.94900000    31.70900000
   N     86.93000000    65.82000000    34.23000000
   C     86.60000000    65.65000000    35.63000000
   C     85.83000000    64.36000000    35.84000000
   O     84.64000000    64.20000000    35.58000000
   C     85.79000000    66.87000000    36.07000000
   C     85.36000000    66.78000000    37.52000000
   O     85.58000000    65.80000000    38.26000000
   O     84.63000000    67.72000000    37.91000000
   H     86.29000000    66.38000000    33.68000000
   H     87.53000000    65.59000000    36.19000000
   H     84.93000000    66.95000000    35.41000000
   H     86.38000000    67.79000000    35.97000000
   N     86.52000000    63.35000000    36.38000000
   C     86.05000000    62.00000000    36.56000000
   C     84.81000000    61.77000000    37.40000000
   O     83.89000000    61.00000000    37.10000000
   C     87.23000000    61.25000000    37.19000000
   C     87.02000000    59.74000000    37.17000000
   C     88.37000000    59.10000000    37.48000000
   C     88.14000000    57.62000000    37.77000000
   N     89.35000000    56.96000000    38.28000000
   H     87.46000000    63.52000000    36.72000000
   H     85.95000000    61.56000000    35.56000000
   H     87.45000000    61.59000000    38.20000000
   H     88.11000000    61.42000000    36.58000000
   H     86.50000000    59.43000000    36.26000000
   H     86.33000000    59.45000000    37.97000000
   H     88.88000000    59.65000000    38.28000000
   H     89.04000000    59.18000000    36.62000000
   H     87.88000000    57.12000000    36.84000000
   H     87.31000000    57.54000000    38.48000000
   H     89.63000000    57.48000000    39.10000000
   H     89.22000000    55.99000000    38.51000000
   H     90.09000000    56.98000000    37.60000000
   N     84.62000000    62.66000000    38.37000000
   C     83.57000000    62.70000000    39.37000000
   C     82.64000000    63.90000000    39.40000000
   O     81.56000000    63.72000000    39.97000000
   C     84.34000000    62.55000000    40.68000000
   C     85.44000000    63.60000000    40.84000000
   O     85.21000000    64.65000000    41.47000000
   O     86.61000000    63.36000000    40.48000000
   H     85.38000000    63.31000000    38.52000000
   H     82.98000000    61.81000000    39.17000000
   H     84.76000000    61.54000000    40.71000000
   H     83.60000000    62.55000000    41.48000000
   N     82.98000000    64.97000000    38.68000000
   C     82.04000000    66.04000000    38.43000000
   C     82.03000000    67.11000000    39.52000000
   O     81.10000000    67.92000000    39.45000000
   H     83.92000000    65.11000000    38.36000000
   H     81.06000000    65.57000000    38.31000000
   H     82.35000000    66.49000000    37.49000000
   N     83.01000000    67.15000000    40.42000000
   C     82.99000000    68.03000000    41.57000000
   C     83.44000000    69.42000000    41.15000000
   O     83.45000000    70.34000000    41.96000000
   C     83.80000000    67.45000000    42.73000000
   C     85.26000000    67.86000000    42.64000000
   N     85.80000000    68.53000000    43.66000000
   O     86.00000000    67.55000000    41.70000000
   H     83.83000000    66.59000000    40.25000000
   H     81.93000000    68.12000000    41.81000000
   H     83.93000000    66.37000000    42.65000000
   H     83.33000000    67.70000000    43.68000000
   H     85.29000000    68.72000000    44.51000000
   H     86.77000000    68.79000000    43.75000000
   N     83.90000000    69.64000000    39.91000000
   C     84.27000000    70.95000000    39.42000000
   C     85.74000000    71.09000000    39.02000000
   O     86.04000000    72.17000000    38.52000000
   H     84.02000000    68.89000000    39.24000000
   H     84.03000000    71.73000000    40.13000000
   H     83.67000000    71.07000000    38.52000000
   N     86.51000000    70.02000000    39.18000000
   C     87.94000000    70.13000000    38.97000000
   C     88.51000000    68.82000000    38.44000000
   O     87.96000000    67.72000000    38.43000000
   C     88.57000000    70.34000000    40.34000000
   C     88.19000000    71.63000000    41.03000000
   C     88.93000000    72.81000000    40.98000000
   C     87.05000000    71.65000000    41.84000000
   C     88.61000000    73.95000000    41.73000000
   C     86.67000000    72.80000000    42.55000000
   C     87.46000000    73.96000000    42.54000000
   O     87.18000000    75.06000000    43.30000000
   H     86.17000000    69.09000000    39.40000000
   H     88.26000000    70.90000000    38.28000000
   H     89.65000000    70.34000000    40.21000000
   H     88.28000000    69.55000000    41.04000000
   H     89.81000000    72.73000000    40.35000000
   H     86.42000000    70.78000000    41.84000000
   H     89.29000000    74.79000000    41.70000000
   H     85.81000000    72.69000000    43.20000000
   H     86.49000000    74.93000000    43.96000000
   N     89.74000000    68.96000000    37.94000000
   C     90.55000000    67.99000000    37.22000000
   C     91.85000000    68.03000000    38.01000000
   O     92.41000000    69.10000000    38.26000000
   C     90.69000000    68.40000000    35.76000000
   C     89.35000000    68.30000000    35.03000000
   C     91.66000000    67.43000000    35.08000000
   C     89.43000000    69.18000000    33.79000000
   H     90.17000000    69.86000000    38.08000000
   H     90.11000000    66.99000000    37.26000000
   H     91.07000000    69.42000000    35.66000000
   H     88.51000000    68.73000000    35.57000000
   H     89.09000000    67.28000000    34.74000000
   H     91.91000000    67.75000000    34.08000000
   H     92.64000000    67.41000000    35.56000000
   H     91.25000000    66.42000000    34.97000000
   H     90.23000000    68.87000000    33.11000000
   H     88.50000000    69.04000000    33.24000000
   H     89.43000000    70.21000000    34.13000000
   N     92.30000000    66.83000000    38.36000000
   C     93.58000000    66.47000000    38.92000000
   C     94.44000000    65.44000000    38.18000000
   O     93.89000000    64.87000000    37.24000000
   C     93.49000000    66.12000000    40.40000000
   O     92.65000000    65.04000000    40.72000000
   H     91.58000000    66.11000000    38.30000000
   H     94.24000000    67.34000000    39.01000000
   H     93.04000000    66.99000000    40.89000000
   H     94.46000000    65.99000000    40.89000000
   H     91.77000000    65.15000000    40.34000000
   N     95.73000000    65.24000000    38.44000000
   C     96.63000000    64.43000000    37.65000000
   C     96.15000000    63.01000000    37.40000000
   O     96.07000000    62.63000000    36.23000000
   C     98.01000000    64.55000000    38.30000000
   H     96.17000000    65.63000000    39.26000000
   H     96.67000000    64.85000000    36.64000000
   H     98.79000000    64.42000000    37.55000000
   H     98.25000000    65.48000000    38.82000000
   H     98.08000000    63.86000000    39.13000000
   N     95.71000000    62.25000000    38.40000000
   C     95.17000000    60.94000000    38.08000000
   C     93.90000000    60.97000000    37.24000000
   O     93.65000000    60.03000000    36.49000000
   C     95.00000000    60.25000000    39.43000000
   H     95.67000000    62.61000000    39.34000000
   H     95.95000000    60.49000000    37.48000000
   H     94.20000000    60.70000000    40.02000000
   H     94.80000000    59.20000000    39.23000000
   H     95.99000000    60.28000000    39.89000000
   N     93.16000000    62.07000000    37.23000000
   C     91.96000000    62.21000000    36.43000000
   C     92.30000000    62.52000000    34.98000000
   O     91.83000000    61.94000000    33.99000000
   C     90.99000000    63.25000000    36.98000000
   C     90.59000000    63.07000000    38.44000000
   C     89.82000000    64.33000000    38.82000000
   O     88.66000000    64.44000000    38.38000000
   O     90.38000000    65.24000000    39.48000000
   H     93.46000000    62.90000000    37.72000000
   H     91.41000000    61.27000000    36.40000000
   H     90.11000000    63.10000000    36.35000000
   H     91.48000000    64.19000000    36.74000000
   H     91.44000000    62.86000000    39.09000000
   H     89.96000000    62.19000000    38.46000000
   N     93.28000000    63.39000000    34.75000000
   C     93.87000000    63.68000000    33.45000000
   H     94.88600000    63.28700000    33.41700000
   H     93.27400000    63.21100000    32.66700000
   H     93.89300000    64.75800000    33.29300000
   H     93.68000000    63.80000000    35.58000000
  Ca     87.49000000    65.67000000    40.27000000
   O     88.01000000    65.33000000    42.79000000
   H     87.40000000    64.65000000    43.07000000
   H     88.41000000    65.65000000    43.60000000

Ca 1.70



