%chk=CaMKII_loop3_6.0.chk
%nprocshared=48
%mem=10GB
%nosave
#b3lyp/svp scf=(tight,noincore) Test 
#IOP(5/87=12) Density=Current Pop=(MK,readradii) iop(6/33=2) iop(6/42=6)

CaMKII_loop3_6.0 

   0   1
   C     77.72000000    61.51000000    20.54000000
   C     77.41000000    60.05000000    20.25000000
   O     78.30000000    59.20000000    20.23000000
   H     78.63900000    61.79500000    20.02700000
   H     76.89900000    62.13400000    20.18600000
   H     77.84600000    61.64900000    21.61400000
   N     76.15000000    59.62000000    20.15000000
   C     75.82000000    58.37000000    19.49000000
   C     75.99000000    58.52000000    17.99000000
   O     75.03000000    58.69000000    17.25000000
   C     74.44000000    57.89000000    19.90000000
   C     74.05000000    56.59000000    19.22000000
   O     72.84000000    56.37000000    19.01000000
   O     74.91000000    55.70000000    19.02000000
   H     75.44000000    60.34000000    20.18000000
   H     76.60000000    57.65000000    19.74000000
   H     73.70000000    58.62000000    19.57000000
   H     74.32000000    57.64000000    20.96000000
   N     77.23000000    58.48000000    17.49000000
   C     77.62000000    58.68000000    16.11000000
   C     76.83000000    57.88000000    15.09000000
   O     76.37000000    58.37000000    14.06000000
   C     79.10000000    58.35000000    15.94000000
   C     79.73000000    58.49000000    14.56000000
   C     81.24000000    58.45000000    14.78000000
   C     81.96000000    58.60000000    13.44000000
   N     83.42000000    58.49000000    13.59000000
   H     77.94000000    58.59000000    18.21000000
   H     77.47000000    59.74000000    15.88000000
   H     79.33000000    57.35000000    16.31000000
   H     79.64000000    58.99000000    16.64000000
   H     79.40000000    59.40000000    14.06000000
   H     79.39000000    57.64000000    13.97000000
   H     81.47000000    57.47000000    15.19000000
   H     81.43000000    59.26000000    15.49000000
   H     81.69000000    59.56000000    12.99000000
   H     81.67000000    57.74000000    12.84000000
   H     83.71000000    57.78000000    14.25000000
   H     83.81000000    58.23000000    12.69000000
   H     83.87000000    59.37000000    13.77000000
   N     76.73000000    56.57000000    15.35000000
   C     76.05000000    55.67000000    14.45000000
   C     74.55000000    55.63000000    14.73000000
   O     73.85000000    54.98000000    13.97000000
   C     76.61000000    54.26000000    14.37000000
   C     76.50000000    53.37000000    15.60000000
   O     75.96000000    53.78000000    16.64000000
   O     76.89000000    52.18000000    15.54000000
   H     77.21000000    56.12000000    16.12000000
   H     76.17000000    56.06000000    13.43000000
   H     77.66000000    54.33000000    14.08000000
   H     76.16000000    53.78000000    13.49000000
   N     74.08000000    56.37000000    15.74000000
   C     72.66000000    56.59000000    15.86000000
   C     71.87000000    55.32000000    16.19000000
   O     70.66000000    55.32000000    15.98000000
   H     74.69000000    56.75000000    16.45000000
   H     72.23000000    57.08000000    14.99000000
   H     72.50000000    57.37000000    16.60000000
   N     72.48000000    54.27000000    16.73000000
   C     71.84000000    53.05000000    17.18000000
   C     71.18000000    53.11000000    18.55000000
   O     70.58000000    52.09000000    18.89000000
   C     72.83000000    51.89000000    17.01000000
   C     73.79000000    51.73000000    18.18000000
   N     74.41000000    50.56000000    18.31000000
   O     74.04000000    52.58000000    19.02000000
   H     73.41000000    54.49000000    17.07000000
   H     71.04000000    52.90000000    16.46000000
   H     73.50000000    52.11000000    16.18000000
   H     72.37000000    50.93000000    16.81000000
   H     74.10000000    49.76000000    17.78000000
   H     75.00000000    50.47000000    19.12000000
   N     71.27000000    54.22000000    19.29000000
   C     70.60000000    54.44000000    20.55000000
   C     71.54000000    54.37000000    21.74000000
   O     71.04000000    54.38000000    22.87000000
   H     71.74000000    55.00000000    18.85000000
   H     69.74000000    53.78000000    20.69000000
   H     70.10000000    55.41000000    20.55000000
   N     72.86000000    54.31000000    21.56000000
   C     73.82000000    54.05000000    22.62000000
   C     75.10000000    54.81000000    22.32000000
   O     75.69000000    54.53000000    21.28000000
   C     74.01000000    52.54000000    22.63000000
   C     72.77000000    51.73000000    22.94000000
   C     72.34000000    51.51000000    24.25000000
   C     72.04000000    51.06000000    21.95000000
   C     71.16000000    50.82000000    24.56000000
   C     70.83000000    50.39000000    22.19000000
   C     70.38000000    50.28000000    23.52000000
   O     69.16000000    49.72000000    23.76000000
   H     73.20000000    54.53000000    20.64000000
   H     73.39000000    54.31000000    23.59000000
   H     74.74000000    52.25000000    23.39000000
   H     74.47000000    52.25000000    21.68000000
   H     72.82000000    52.09000000    25.03000000
   H     72.40000000    51.21000000    20.94000000
   H     70.80000000    50.73000000    25.58000000
   H     70.24000000    50.05000000    21.35000000
   H     68.77000000    49.36000000    22.96000000
   N     75.69000000    55.62000000    23.21000000
   C     77.00000000    56.20000000    23.04000000
   C     78.11000000    55.25000000    23.48000000
   O     77.91000000    54.49000000    24.42000000
   C     77.07000000    57.51000000    23.81000000
   C     76.03000000    58.57000000    23.47000000
   C     78.42000000    58.21000000    23.71000000
   C     75.82000000    59.66000000    24.52000000
   H     75.30000000    55.60000000    24.14000000
   H     77.14000000    56.35000000    21.97000000
   H     77.06000000    57.25000000    24.87000000
   H     75.06000000    58.09000000    23.40000000
   H     76.30000000    58.98000000    22.50000000
   H     78.58000000    58.46000000    22.66000000
   H     78.50000000    59.13000000    24.28000000
   H     79.22000000    57.53000000    24.02000000
   H     74.93000000    60.25000000    24.30000000
   H     75.90000000    59.20000000    25.50000000
   H     76.71000000    60.30000000    24.48000000
   N     79.21000000    55.19000000    22.73000000
   C     80.45000000    54.53000000    23.10000000
   C     81.71000000    55.38000000    23.06000000
   O     81.72000000    56.54000000    22.67000000
   C     80.53000000    53.22000000    22.33000000
   O     80.85000000    53.48000000    20.98000000
   H     79.15000000    55.67000000    21.85000000
   H     80.48000000    54.18000000    24.13000000
   H     79.60000000    52.66000000    22.48000000
   H     81.35000000    52.69000000    22.81000000
   H     80.18000000    54.11000000    20.70000000
   N     82.79000000    54.78000000    23.56000000
   C     84.00000000    55.53000000    23.83000000
   C     84.72000000    56.16000000    22.65000000
   O     84.81000000    57.39000000    22.59000000
   C     84.93000000    54.65000000    24.67000000
   H     82.81000000    53.79000000    23.76000000
   H     83.79000000    56.36000000    24.50000000
   H     85.22000000    53.81000000    24.05000000
   H     85.81000000    55.18000000    25.02000000
   H     84.30000000    54.23000000    25.46000000
   N     84.98000000    55.45000000    21.55000000
   C     85.36000000    55.87000000    20.22000000
   C     84.32000000    56.74000000    19.53000000
   O     84.73000000    57.51000000    18.67000000
   C     85.63000000    54.61000000    19.40000000
   H     84.58000000    54.52000000    21.56000000
   H     86.28000000    56.45000000    20.29000000
   H     86.47000000    54.07000000    19.85000000
   H     84.77000000    53.95000000    19.48000000
   H     85.80000000    54.77000000    18.34000000
   N     83.03000000    56.70000000    19.89000000
   C     82.10000000    57.64000000    19.31000000
   C     82.18000000    59.01000000    19.96000000
   O     82.05000000    60.09000000    19.38000000
   C     80.68000000    57.09000000    19.36000000
   C     80.59000000    55.76000000    18.63000000
   C     79.15000000    55.29000000    18.82000000
   O     78.23000000    55.48000000    18.00000000
   O     78.79000000    54.68000000    19.85000000
   H     82.81000000    56.13000000    20.70000000
   H     82.36000000    57.80000000    18.26000000
   H     80.09000000    57.90000000    18.94000000
   H     80.35000000    56.85000000    20.38000000
   H     81.28000000    55.02000000    19.04000000
   H     80.75000000    55.93000000    17.56000000
   N     82.42000000    58.94000000    21.27000000
   C     82.61000000    60.12000000    22.09000000
   H     83.40400000    60.73300000    21.66500000
   H     81.68500000    60.69500000    22.12000000
   H     82.88500000    59.82000000    23.10100000
   H     82.43000000    57.99000000    21.62000000
  Ca     76.60000000    53.86000000    19.06000000
   O     78.09000000    51.98000000    17.89000000
   H     79.04000000    51.91000000    17.80000000
   H     77.75000000    51.74000000    17.03000000

Ca 1.70



