%chk=holoCaM_loop3_83.0.chk
%nprocshared=48
%mem=10GB
%nosave
#b3lyp/svp scf=(tight,noincore) Test 
#IOP(5/87=12) Density=Current Pop=(MK,readradii) iop(6/33=2) iop(6/42=6)

holoCaM_loop3_83.0 

   0   1
   C     84.12000000    34.04000000    26.40000000
   C     85.56000000    33.78000000    26.82000000
   O     85.85000000    32.76000000    27.43000000
   H     83.51600000    34.24600000    27.28400000
   H     84.08600000    34.89800000    25.72900000
   H     83.72600000    33.16200000    25.88800000
   N     86.47000000    34.74000000    26.57000000
   C     87.78000000    34.83000000    27.17000000
   C     87.81000000    35.06000000    28.68000000
   O     87.38000000    36.14000000    29.07000000
   C     88.65000000    35.80000000    26.37000000
   C     90.15000000    35.72000000    26.61000000
   O     90.97000000    35.99000000    25.70000000
   O     90.57000000    35.30000000    27.71000000
   H     86.12000000    35.55000000    26.09000000
   H     88.23000000    33.85000000    27.00000000
   H     88.28000000    36.81000000    26.56000000
   H     88.43000000    35.56000000    25.33000000
   N     88.49000000    34.26000000    29.50000000
   C     88.56000000    34.24000000    30.95000000
   C     89.77000000    34.85000000    31.64000000
   O     89.83000000    34.93000000    32.87000000
   C     88.28000000    32.86000000    31.53000000
   C     87.03000000    32.20000000    30.95000000
   C     85.76000000    32.79000000    31.56000000
   C     84.55000000    32.34000000    30.75000000
   N     83.36000000    33.01000000    31.30000000
   H     89.14000000    33.60000000    29.10000000
   H     87.72000000    34.84000000    31.30000000
   H     88.12000000    32.97000000    32.60000000
   H     89.10000000    32.16000000    31.39000000
   H     87.01000000    31.13000000    31.15000000
   H     86.98000000    32.43000000    29.89000000
   H     85.87000000    33.88000000    31.53000000
   H     85.58000000    32.30000000    32.52000000
   H     84.57000000    31.25000000    30.74000000
   H     84.83000000    32.60000000    29.73000000
   H     83.31000000    32.87000000    32.29000000
   H     83.35000000    34.00000000    31.10000000
   H     82.44000000    32.72000000    30.98000000
   N     90.78000000    35.18000000    30.83000000
   C     91.92000000    35.97000000    31.27000000
   C     92.27000000    37.13000000    30.35000000
   O     93.11000000    37.92000000    30.77000000
   C     93.16000000    35.09000000    31.36000000
   C     93.48000000    34.42000000    30.03000000
   O     93.89000000    35.15000000    29.10000000
   O     92.98000000    33.30000000    29.78000000
   H     90.61000000    35.10000000    29.84000000
   H     91.76000000    36.29000000    32.30000000
   H     92.82000000    34.27000000    32.00000000
   H     94.02000000    35.64000000    31.75000000
   N     91.53000000    37.35000000    29.26000000
   C     91.26000000    38.64000000    28.64000000
   C     92.25000000    38.84000000    27.50000000
   O     92.14000000    39.88000000    26.86000000
   H     90.86000000    36.65000000    28.99000000
   H     91.34000000    39.45000000    29.36000000
   H     90.30000000    38.73000000    28.13000000
   N     93.19000000    37.96000000    27.18000000
   C     94.28000000    38.37000000    26.31000000
   C     93.92000000    38.35000000    24.83000000
   O     94.71000000    38.94000000    24.09000000
   C     95.48000000    37.45000000    26.52000000
   C     95.39000000    35.99000000    26.09000000
   N     96.52000000    35.28000000    26.16000000
   O     94.35000000    35.41000000    25.79000000
   H     93.30000000    37.15000000    27.77000000
   H     94.68000000    39.33000000    26.62000000
   H     95.57000000    37.44000000    27.61000000
   H     96.33000000    37.96000000    26.08000000
   H     97.34000000    35.75000000    26.51000000
   H     96.56000000    34.32000000    25.87000000
   N     92.81000000    37.74000000    24.44000000
   C     92.39000000    37.74000000    23.05000000
   C     92.70000000    36.42000000    22.36000000
   O     92.62000000    36.45000000    21.14000000
   H     92.19000000    37.29000000    25.10000000
   H     93.02000000    38.41000000    22.48000000
   H     91.39000000    38.15000000    22.92000000
   N     92.87000000    35.35000000    23.14000000
   C     92.91000000    33.98000000    22.66000000
   C     92.10000000    33.03000000    23.53000000
   O     92.21000000    33.09000000    24.75000000
   C     94.40000000    33.62000000    22.67000000
   C     95.26000000    34.61000000    21.93000000
   C     96.14000000    35.46000000    22.62000000
   C     95.26000000    34.64000000    20.53000000
   C     96.87000000    36.44000000    21.93000000
   C     95.97000000    35.64000000    19.85000000
   C     96.75000000    36.60000000    20.54000000
   O     97.41000000    37.60000000    19.89000000
   H     92.83000000    35.68000000    24.10000000
   H     92.49000000    33.95000000    21.66000000
   H     94.56000000    32.59000000    22.38000000
   H     94.70000000    33.65000000    23.72000000
   H     96.04000000    35.40000000    23.69000000
   H     94.58000000    34.07000000    19.91000000
   H     97.51000000    37.15000000    22.44000000
   H     96.01000000    35.72000000    18.78000000
   H     97.24000000    37.61000000    18.95000000
   N     91.34000000    32.11000000    22.94000000
   C     90.42000000    31.23000000    23.64000000
   C     90.99000000    29.82000000    23.48000000
   O     91.16000000    29.30000000    22.37000000
   C     88.99000000    31.41000000    23.16000000
   C     88.58000000    32.87000000    23.26000000
   C     88.11000000    30.60000000    24.12000000
   C     87.09000000    33.08000000    23.01000000
   H     91.38000000    32.02000000    21.93000000
   H     90.39000000    31.53000000    24.68000000
   H     88.86000000    31.07000000    22.13000000
   H     89.12000000    33.37000000    22.45000000
   H     88.90000000    33.31000000    24.20000000
   H     88.37000000    29.55000000    24.26000000
   H     88.07000000    30.90000000    25.17000000
   H     87.06000000    30.68000000    23.85000000
   H     86.63000000    32.37000000    22.32000000
   H     86.58000000    32.89000000    23.96000000
   H     86.90000000    34.14000000    22.83000000
   N     91.44000000    29.25000000    24.60000000
   C     91.98000000    27.93000000    24.85000000
   C     90.95000000    26.87000000    25.20000000
   O     89.81000000    27.24000000    25.47000000
   C     93.02000000    27.98000000    25.96000000
   O     92.40000000    28.39000000    27.16000000
   H     91.29000000    29.85000000    25.40000000
   H     92.59000000    27.66000000    23.98000000
   H     93.82000000    28.62000000    25.60000000
   H     93.53000000    27.08000000    26.30000000
   H     92.45000000    29.35000000    27.11000000
   N     91.27000000    25.58000000    25.16000000
   C     90.28000000    24.56000000    25.42000000
   C     89.72000000    24.68000000    26.84000000
   O     88.54000000    24.42000000    27.04000000
   C     90.84000000    23.15000000    25.23000000
   H     92.26000000    25.36000000    25.13000000
   H     89.43000000    24.54000000    24.73000000
   H     91.85000000    23.12000000    25.65000000
   H     90.21000000    22.43000000    25.74000000
   H     90.78000000    22.94000000    24.16000000
   N     90.48000000    25.07000000    27.87000000
   C     89.96000000    25.29000000    29.20000000
   C     88.90000000    26.38000000    29.30000000
   O     88.05000000    26.33000000    30.19000000
   C     91.12000000    25.76000000    30.08000000
   H     91.45000000    25.20000000    27.64000000
   H     89.60000000    24.33000000    29.56000000
   H     91.45000000    26.77000000    29.83000000
   H     90.80000000    25.78000000    31.12000000
   H     91.91000000    25.00000000    30.06000000
   N     89.00000000    27.41000000    28.46000000
   C     88.03000000    28.48000000    28.26000000
   C     86.92000000    28.16000000    27.26000000
   O     85.79000000    28.61000000    27.44000000
   C     88.74000000    29.77000000    27.85000000
   C     90.02000000    30.20000000    28.56000000
   C     90.70000000    31.39000000    27.91000000
   O     90.44000000    32.55000000    28.32000000
   O     91.56000000    31.19000000    27.02000000
   H     89.84000000    27.28000000    27.92000000
   H     87.52000000    28.76000000    29.18000000
   H     88.01000000    30.58000000    27.78000000
   H     88.96000000    29.60000000    26.80000000
   H     90.70000000    29.37000000    28.70000000
   H     89.73000000    30.63000000    29.52000000
   N     87.11000000    27.20000000    26.35000000
   C     86.11000000    26.57000000    25.51000000
   H     85.24500000    27.22800000    25.42000000
   H     86.53000000    26.38500000    24.52100000
   H     85.80200000    25.62500000    25.95700000
   H     88.05000000    27.00000000    26.05000000
  Ca     92.47000000    33.64000000    27.29000000
   O     94.60000000    32.07000000    26.96000000
   H     95.52000000    32.21000000    27.17000000
   H     94.62000000    31.61000000    26.12000000

Ca 1.70



