%chk=holoCaM_loop3_96.0.chk
%nprocshared=48
%mem=10GB
%nosave
#b3lyp/svp scf=(tight,noincore) Test 
#IOP(5/87=12) Density=Current Pop=(MK,readradii) iop(6/33=2) iop(6/42=6)

holoCaM_loop3_96.0 

   0   1
   C     91.21000000    59.29000000   103.61700000
   C     92.50000000    59.77000000   102.97700000
   O     93.16000000    58.80000000   102.63700000
   H     90.41100000    59.30100000   102.87500000
   H     91.34500000    58.27500000   103.99000000
   H     90.94600000    59.95000000   104.44400000
   N     92.76000000    61.08000000   102.88700000
   C     93.96000000    61.58000000   102.25700000
   C     95.20000000    61.29000000   103.08700000
   O     95.14000000    61.47000000   104.29700000
   C     93.74000000    63.07000000   101.97700000
   C     94.76000000    63.78000000   101.09700000
   O     94.47000000    64.35000000   100.01700000
   O     95.91000000    63.32000000   101.21700000
   H     92.22000000    61.61000000   103.55700000
   H     94.03000000    61.10000000   101.27700000
   H     93.60000000    63.59000000   102.92700000
   H     92.74000000    63.18000000   101.56700000
   N     96.26000000    60.69000000   102.53700000
   C     97.39000000    60.15000000   103.25700000
   C     98.48000000    61.19000000   103.47700000
   O     99.28000000    60.97000000   104.37700000
   C     97.84000000    58.85000000   102.59700000
   C     96.87000000    57.67000000   102.73700000
   C     97.50000000    56.30000000   102.51700000
   C     98.65000000    55.90000000   103.43700000
   N     99.15000000    54.54000000   103.19700000
   H     96.34000000    60.58000000   101.53700000
   H     97.05000000    59.95000000   104.27700000
   H     98.76000000    58.57000000   103.11700000
   H     98.07000000    58.90000000   101.53700000
   H     96.02000000    57.80000000   102.06700000
   H     96.34000000    57.66000000   103.69700000
   H     97.96000000    56.29000000   101.52700000
   H     96.72000000    55.54000000   102.50700000
   H     98.29000000    55.92000000   104.46700000
   H     99.43000000    56.67000000   103.42700000
   H    100.10000000    54.49000000   103.55700000
   H     98.51000000    53.84000000   103.52700000
   H     99.42000000    54.42000000   102.22700000
   N     98.49000000    62.32000000   102.75700000
   C     99.25000000    63.49000000   103.13700000
   C     98.34000000    64.61000000   103.61700000
   O     98.86000000    65.52000000   104.24700000
   C    100.08000000    63.98000000   101.95700000
   C     99.40000000    64.23000000   100.61700000
   O    100.15000000    63.87000000    99.67700000
   O     98.19000000    64.54000000   100.57700000
   H     97.72000000    62.34000000   102.10700000
   H     99.90000000    63.20000000   103.96700000
   H    100.90000000    63.28000000   101.77700000
   H    100.44000000    64.97000000   102.20700000
   N     97.04000000    64.61000000   103.28700000
   C     96.08000000    65.63000000   103.64700000
   C     96.04000000    66.81000000   102.68700000
   O     95.49000000    67.85000000   103.04700000
   H     96.72000000    63.90000000   102.64700000
   H     96.27000000    66.02000000   104.64700000
   H     95.09000000    65.17000000   103.57700000
   N     96.45000000    66.71000000   101.41700000
   C     96.59000000    67.77000000   100.42700000
   C     95.34000000    68.13000000    99.62700000
   O     95.25000000    69.24000000    99.12700000
   C     97.83000000    67.54000000    99.57700000
   C     97.60000000    66.71000000    98.31700000
   N     98.23000000    67.08000000    97.19700000
   O     96.86000000    65.74000000    98.24700000
   H     96.84000000    65.84000000   101.08700000
   H     96.75000000    68.62000000   101.08700000
   H     98.72000000    67.15000000   100.07700000
   H     98.09000000    68.55000000    99.25700000
   H     98.88000000    67.85000000    97.23700000
   H     97.97000000    66.63000000    96.33700000
   N     94.32000000    67.27000000    99.58700000
   C     93.06000000    67.52000000    98.90700000
   C     92.85000000    66.92000000    97.52700000
   O     91.98000000    67.39000000    96.79700000
   H     94.39000000    66.42000000   100.11700000
   H     92.95000000    68.58000000    98.70700000
   H     92.27000000    67.10000000    99.51700000
   N     93.67000000    65.91000000    97.22700000
   C     93.61000000    65.20000000    95.96700000
   C     93.93000000    63.76000000    96.33700000
   O     94.70000000    63.53000000    97.26700000
   C     94.71000000    65.74000000    95.05700000
   C     94.50000000    67.14000000    94.52700000
   C     95.35000000    68.21000000    94.85700000
   C     93.50000000    67.44000000    93.60700000
   C     95.26000000    69.50000000    94.32700000
   C     93.36000000    68.75000000    93.11700000
   C     94.21000000    69.83000000    93.44700000
   O     94.18000000    71.03000000    92.79700000
   H     94.35000000    65.59000000    97.90700000
   H     92.62000000    65.33000000    95.52700000
   H     95.02000000    65.00000000    94.31700000
   H     95.55000000    65.87000000    95.74700000
   H     96.20000000    68.07000000    95.50700000
   H     92.89000000    66.70000000    93.10700000
   H     96.04000000    70.21000000    94.53700000
   H     92.68000000    69.08000000    92.34700000
   H     93.35000000    71.04000000    92.30700000
   N     93.30000000    62.81000000    95.64700000
   C     93.31000000    61.39000000    95.95700000
   C     93.80000000    60.64000000    94.73700000
   O     93.21000000    60.79000000    93.66700000
   C     91.99000000    60.84000000    96.47700000
   C     91.44000000    61.35000000    97.80700000
   C     91.98000000    59.31000000    96.44700000
   C     92.31000000    61.25000000    99.04700000
   H     92.72000000    63.08000000    94.86700000
   H     94.07000000    61.16000000    96.70700000
   H     91.16000000    61.07000000    95.79700000
   H     90.46000000    60.88000000    97.93700000
   H     91.20000000    62.41000000    97.71700000
   H     90.99000000    59.02000000    96.78700000
   H     92.14000000    58.83000000    95.47700000
   H     92.70000000    58.96000000    97.18700000
   H     93.06000000    62.04000000    99.10700000
   H     91.67000000    61.29000000    99.93700000
   H     92.91000000    60.35000000    99.18700000
   N     94.80000000    59.77000000    94.85700000
   C     95.33000000    58.90000000    93.82700000
   C     94.77000000    57.50000000    94.02700000
   O     94.05000000    57.13000000    94.94700000
   C     96.85000000    59.04000000    93.83700000
   O     97.42000000    58.20000000    94.81700000
   H     95.11000000    59.60000000    95.80700000
   H     95.00000000    59.21000000    92.82700000
   H     97.10000000    60.09000000    94.01700000
   H     97.19000000    58.72000000    92.85700000
   H     98.36000000    58.11000000    94.66700000
   N     95.09000000    56.66000000    93.03700000
   C     94.66000000    55.28000000    93.12700000
   C     95.44000000    54.51000000    94.18700000
   O     94.91000000    53.55000000    94.74700000
   C     94.86000000    54.54000000    91.80700000
   H     95.51000000    57.03000000    92.19700000
   H     93.63000000    55.41000000    93.45700000
   H     94.23000000    53.66000000    91.95700000
   H     94.38000000    55.03000000    90.96700000
   H     95.91000000    54.34000000    91.61700000
   N     96.68000000    54.91000000    94.49700000
   C     97.51000000    54.45000000    95.58700000
   C     96.91000000    54.74000000    96.94700000
   O     96.60000000    53.83000000    97.71700000
   C     98.99000000    54.76000000    95.35700000
   H     97.15000000    55.57000000    93.89700000
   H     97.48000000    53.36000000    95.47700000
   H     99.14000000    55.84000000    95.36700000
   H     99.60000000    54.40000000    96.17700000
   H     99.32000000    54.35000000    94.39700000
   N     96.50000000    55.99000000    97.18700000
   C     95.65000000    56.33000000    98.30700000
   C     94.36000000    55.54000000    98.38700000
   O     94.10000000    54.85000000    99.37700000
   C     95.30000000    57.82000000    98.24700000
   C     96.54000000    58.71000000    98.35700000
   C     96.19000000    60.17000000    98.56700000
   O     96.03000000    60.66000000    99.70700000
   O     96.30000000    60.96000000    97.60700000
   H     96.74000000    56.77000000    96.58700000
   H     96.09000000    56.08000000    99.26700000
   H     94.70000000    58.07000000    99.11700000
   H     94.84000000    58.02000000    97.27700000
   H     97.18000000    58.50000000    97.49700000
   H     97.15000000    58.40000000    99.20700000
   N     93.68000000    55.49000000    97.23700000
   C     92.39000000    54.83000000    97.24700000
   H     91.66100000    55.45000000    96.72600000
   H     92.47100000    53.86600000    96.74500000
   H     92.06700000    54.67800000    98.27700000
   H     94.03000000    56.06000000    96.48700000
  Ca     96.88000000    63.10000000    98.86000000
   O     98.92000000    61.42000000    99.29000000
   H     99.68000000    61.99000000    99.28000000
   H     99.22000000    60.63000000    99.73000000

Ca 1.70



