%chk=holoCaM_loop3_68.0.chk
%nprocshared=48
%mem=10GB
%nosave
#b3lyp/svp scf=(tight,noincore) Test 
#IOP(5/87=12) Density=Current Pop=(MK,readradii) iop(6/33=2) iop(6/42=6)

holoCaM_loop3_68.0 

   0   1
   C     46.04000000    51.91000000    46.33000000
   C     46.64000000    51.63000000    47.70000000
   O     45.89000000    51.59000000    48.68000000
   H     45.15000000    52.52900000    46.44300000
   H     46.77000000    52.43400000    45.71300000
   H     45.76900000    50.96900000    45.85200000
   N     47.96000000    51.55000000    47.88000000
   C     48.59000000    51.30000000    49.16000000
   C     48.89000000    52.61000000    49.88000000
   O     49.97000000    53.16000000    49.68000000
   C     49.84000000    50.43000000    49.07000000
   C     50.50000000    50.27000000    50.43000000
   O     49.96000000    50.68000000    51.49000000
   O     51.55000000    49.61000000    50.55000000
   H     48.52000000    51.59000000    47.04000000
   H     47.93000000    50.72000000    49.80000000
   H     50.55000000    50.92000000    48.40000000
   H     49.44000000    49.46000000    48.77000000
   N     47.95000000    53.08000000    50.70000000
   C     47.80000000    54.41000000    51.25000000
   C     49.01000000    54.90000000    52.03000000
   O     49.34000000    56.08000000    51.88000000
   C     46.54000000    54.42000000    52.10000000
   C     46.03000000    55.86000000    52.17000000
   C     44.84000000    55.88000000    53.13000000
   C     44.42000000    57.33000000    53.35000000
   N     43.16000000    57.42000000    54.11000000
   H     47.32000000    52.36000000    51.04000000
   H     47.59000000    55.09000000    50.43000000
   H     46.66000000    53.94000000    53.07000000
   H     45.76000000    53.86000000    51.58000000
   H     45.68000000    56.15000000    51.18000000
   H     46.81000000    56.53000000    52.53000000
   H     45.22000000    55.42000000    54.04000000
   H     44.01000000    55.32000000    52.69000000
   H     44.23000000    57.70000000    52.35000000
   H     45.19000000    57.94000000    53.83000000
   H     43.32000000    56.98000000    55.01000000
   H     42.86000000    58.36000000    54.30000000
   H     42.41000000    56.99000000    53.59000000
   N     49.61000000    54.05000000    52.86000000
   C     50.80000000    54.31000000    53.65000000
   C     52.07000000    53.72000000    53.08000000
   O     53.14000000    54.12000000    53.53000000
   C     50.48000000    53.88000000    55.08000000
   C     49.86000000    52.50000000    55.26000000
   O     49.76000000    52.08000000    56.44000000
   O     49.59000000    51.80000000    54.27000000
   H     49.32000000    53.08000000    52.83000000
   H     51.02000000    55.38000000    53.65000000
   H     49.72000000    54.54000000    55.50000000
   H     51.44000000    53.94000000    55.59000000
   N     51.97000000    52.76000000    52.16000000
   C     53.13000000    52.20000000    51.49000000
   C     53.93000000    51.26000000    52.38000000
   O     55.04000000    51.58000000    52.80000000
   H     51.09000000    52.33000000    51.92000000
   H     53.85000000    53.01000000    51.39000000
   H     52.86000000    51.73000000    50.54000000
   N     53.23000000    50.23000000    52.87000000
   C     53.76000000    49.14000000    53.67000000
   C     53.87000000    47.81000000    52.94000000
   O     54.42000000    46.83000000    53.43000000
   C     52.94000000    49.01000000    54.96000000
   C     51.63000000    48.27000000    54.76000000
   N     51.33000000    47.24000000    55.55000000
   O     50.76000000    48.50000000    53.92000000
   H     52.37000000    50.02000000    52.38000000
   H     54.72000000    49.44000000    54.09000000
   H     52.90000000    49.95000000    55.49000000
   H     53.54000000    48.39000000    55.63000000
   H     51.92000000    46.82000000    56.26000000
   H     50.38000000    46.91000000    55.61000000
   N     53.32000000    47.72000000    51.73000000
   C     53.48000000    46.61000000    50.80000000
   C     52.15000000    45.91000000    50.58000000
   O     52.11000000    44.97000000    49.78000000
   H     52.82000000    48.54000000    51.43000000
   H     54.05000000    45.75000000    51.15000000
   H     53.86000000    46.81000000    49.80000000
   N     51.13000000    46.30000000    51.34000000
   C     49.84000000    45.63000000    51.34000000
   C     48.68000000    46.60000000    51.23000000
   O     48.83000000    47.78000000    51.54000000
   C     49.63000000    44.68000000    52.51000000
   C     50.65000000    43.57000000    52.67000000
   C     51.87000000    43.90000000    53.27000000
   C     50.52000000    42.35000000    51.99000000
   C     52.88000000    42.93000000    53.35000000
   C     51.50000000    41.36000000    52.12000000
   C     52.67000000    41.63000000    52.87000000
   O     53.70000000    40.74000000    52.99000000
   H     51.30000000    47.01000000    52.04000000
   H     49.78000000    44.90000000    50.53000000
   H     48.64000000    44.23000000    52.46000000
   H     49.70000000    45.36000000    53.35000000
   H     52.02000000    44.91000000    53.64000000
   H     49.58000000    42.14000000    51.50000000
   H     53.83000000    43.08000000    53.84000000
   H     51.40000000    40.38000000    51.67000000
   H     53.51000000    39.91000000    52.54000000
   N     47.52000000    46.16000000    50.74000000
   C     46.30000000    46.93000000    50.61000000
   C     45.32000000    46.19000000    51.52000000
   O     45.28000000    44.97000000    51.55000000
   C     45.92000000    46.98000000    49.13000000
   C     46.82000000    47.88000000    48.30000000
   C     44.52000000    47.53000000    48.91000000
   C     46.93000000    47.51000000    46.82000000
   H     47.42000000    45.18000000    50.49000000
   H     46.45000000    47.94000000    50.98000000
   H     45.96000000    45.95000000    48.77000000
   H     47.82000000    47.83000000    48.73000000
   H     46.48000000    48.91000000    48.43000000
   H     44.16000000    47.50000000    47.88000000
   H     43.73000000    47.12000000    49.54000000
   H     44.53000000    48.57000000    49.23000000
   H     46.03000000    47.51000000    46.21000000
   H     47.74000000    48.13000000    46.44000000
   H     47.30000000    46.49000000    46.71000000
   N     44.48000000    46.97000000    52.21000000
   C     43.43000000    46.50000000    53.08000000
   C     42.06000000    46.95000000    52.57000000
   O     41.98000000    47.70000000    51.61000000
   C     43.55000000    47.14000000    54.46000000
   O     43.42000000    48.55000000    54.45000000
   H     44.55000000    47.98000000    52.13000000
   H     43.38000000    45.41000000    53.04000000
   H     44.52000000    46.88000000    54.89000000
   H     42.79000000    46.78000000    55.15000000
   H     43.56000000    48.97000000    55.30000000
   N     40.96000000    46.54000000    53.21000000
   C     39.62000000    46.93000000    52.81000000
   C     39.42000000    48.41000000    53.12000000
   O     38.95000000    49.11000000    52.23000000
   C     38.60000000    46.02000000    53.49000000
   H     41.04000000    45.91000000    53.99000000
   H     39.47000000    46.77000000    51.74000000
   H     38.88000000    44.97000000    53.56000000
   H     38.38000000    46.50000000    54.44000000
   H     37.68000000    45.95000000    52.91000000
   N     39.94000000    48.92000000    54.24000000
   C     39.88000000    50.33000000    54.54000000
   C     40.57000000    51.21000000    53.50000000
   O     40.35000000    52.41000000    53.57000000
   C     40.60000000    50.53000000    55.88000000
   H     40.38000000    48.29000000    54.90000000
   H     38.84000000    50.66000000    54.56000000
   H     41.68000000    50.40000000    55.77000000
   H     40.30000000    51.48000000    56.32000000
   H     40.26000000    49.80000000    56.61000000
   N     41.49000000    50.67000000    52.70000000
   C     42.35000000    51.28000000    51.70000000
   C     41.86000000    51.07000000    50.28000000
   O     41.91000000    51.96000000    49.43000000
   C     43.73000000    50.68000000    51.97000000
   C     44.42000000    51.33000000    53.16000000
   C     45.85000000    50.84000000    53.13000000
   O     46.47000000    50.66000000    52.06000000
   O     46.37000000    50.70000000    54.26000000
   H     41.59000000    49.66000000    52.73000000
   H     42.34000000    52.35000000    51.90000000
   H     44.37000000    50.75000000    51.09000000
   H     43.60000000    49.62000000    52.15000000
   H     43.89000000    51.24000000    54.12000000
   H     44.39000000    52.38000000    52.88000000
   N     41.10000000    50.02000000    49.99000000
   C     40.29000000    50.00000000    48.79000000
   H     39.39900000    50.60800000    48.94400000
   H     40.86500000    50.40300000    47.95600000
   H     39.99500000    48.97500000    48.56700000
   H     41.21000000    49.28000000    50.67000000
  Ca     48.62000000    49.67000000    53.39000000
   O     48.79000000    49.63000000    56.08000000
   H     49.28000000    50.39000000    56.39000000
   H     48.37000000    49.27000000    56.87000000

Ca 1.70



