%chk=holoCaM_loop3_75.0.chk
%nprocshared=48
%mem=10GB
%nosave
#b3lyp/svp scf=(tight,noincore) Test 
#IOP(5/87=12) Density=Current Pop=(MK,readradii) iop(6/33=2) iop(6/42=6)

holoCaM_loop3_75.0 

   0   1
   C     79.24000000    65.52000000    96.19000000
   C     80.46000000    65.55000000    95.28000000
   O     80.98000000    64.52000000    94.84000000
   H     78.38800000    65.11900000    95.64100000
   H     79.44500000    64.88700000    97.05300000
   H     79.01200000    66.53100000    96.52600000
   N     80.94000000    66.75000000    94.95000000
   C     82.17000000    67.05000000    94.25000000
   C     83.35000000    67.06000000    95.23000000
   O     83.58000000    68.04000000    95.94000000
   C     82.00000000    68.31000000    93.40000000
   C     83.27000000    68.49000000    92.59000000
   O     83.47000000    69.60000000    92.05000000
   O     84.07000000    67.53000000    92.51000000
   H     80.47000000    67.60000000    95.22000000
   H     82.38000000    66.16000000    93.66000000
   H     81.93000000    69.15000000    94.09000000
   H     81.06000000    68.25000000    92.85000000
   N     84.11000000    65.98000000    95.36000000
   C     85.05000000    65.74000000    96.44000000
   C     86.33000000    66.56000000    96.43000000
   O     86.83000000    66.86000000    97.51000000
   C     85.37000000    64.25000000    96.50000000
   C     84.23000000    63.39000000    97.05000000
   C     84.01000000    63.61000000    98.54000000
   C     82.75000000    62.98000000    99.14000000
   N     81.50000000    63.32000000    98.45000000
   H     84.02000000    65.24000000    94.68000000
   H     84.57000000    66.01000000    97.38000000
   H     86.27000000    64.12000000    97.10000000
   H     85.64000000    63.98000000    95.48000000
   H     84.43000000    62.33000000    96.96000000
   H     83.28000000    63.60000000    96.55000000
   H     83.96000000    64.69000000    98.68000000
   H     84.83000000    63.08000000    99.03000000
   H     82.71000000    63.13000000   100.22000000
   H     82.88000000    61.89000000    99.12000000
   H     80.75000000    62.75000000    98.82000000
   H     81.30000000    64.31000000    98.52000000
   H     81.55000000    63.09000000    97.47000000
   N     86.88000000    66.77000000    95.23000000
   C     88.01000000    67.55000000    94.78000000
   C     87.88000000    69.01000000    94.37000000
   O     88.76000000    69.87000000    94.34000000
   C     88.83000000    66.66000000    93.86000000
   C     88.13000000    66.23000000    92.57000000
   O     88.69000000    65.52000000    91.71000000
   O     86.94000000    66.57000000    92.45000000
   H     86.27000000    66.45000000    94.49000000
   H     88.61000000    67.72000000    95.68000000
   H     88.97000000    65.77000000    94.47000000
   H     89.74000000    67.23000000    93.69000000
   N     86.58000000    69.35000000    94.37000000
   C     86.03000000    70.64000000    94.02000000
   C     86.41000000    71.02000000    92.60000000
   O     86.84000000    72.14000000    92.33000000
   H     85.94000000    68.57000000    94.42000000
   H     86.26000000    71.44000000    94.72000000
   H     84.94000000    70.57000000    93.99000000
   N     86.30000000    70.11000000    91.63000000
   C     86.76000000    70.43000000    90.29000000
   C     85.69000000    70.95000000    89.34000000
   O     85.89000000    71.45000000    88.24000000
   C     87.49000000    69.22000000    89.73000000
   C     86.57000000    68.25000000    89.01000000
   N     87.05000000    67.77000000    87.86000000
   O     85.49000000    67.86000000    89.46000000
   H     85.91000000    69.21000000    91.87000000
   H     87.41000000    71.30000000    90.34000000
   H     87.93000000    68.68000000    90.57000000
   H     88.31000000    69.58000000    89.10000000
   H     87.94000000    67.93000000    87.41000000
   H     86.49000000    67.01000000    87.50000000
   N     84.39000000    70.94000000    89.67000000
   C     83.19000000    71.44000000    89.04000000
   C     82.33000000    70.42000000    88.31000000
   O     81.49000000    70.85000000    87.52000000
   H     84.20000000    70.42000000    90.52000000
   H     83.46000000    72.19000000    88.29000000
   H     82.58000000    71.99000000    89.75000000
   N     82.62000000    69.12000000    88.44000000
   C     81.78000000    68.00000000    88.06000000
   C     81.75000000    66.89000000    89.10000000
   O     82.75000000    66.54000000    89.72000000
   C     82.19000000    67.47000000    86.69000000
   C     82.49000000    68.41000000    85.55000000
   C     83.61000000    69.25000000    85.53000000
   C     81.64000000    68.35000000    84.44000000
   C     83.82000000    70.20000000    84.52000000
   C     81.85000000    69.25000000    83.39000000
   C     82.91000000    70.18000000    83.45000000
   O     82.97000000    71.08000000    82.43000000
   H     83.50000000    68.88000000    88.88000000
   H     80.73000000    68.29000000    87.98000000
   H     81.43000000    66.72000000    86.49000000
   H     83.10000000    66.88000000    86.83000000
   H     84.35000000    69.17000000    86.31000000
   H     80.81000000    67.66000000    84.40000000
   H     84.59000000    70.95000000    84.58000000
   H     81.16000000    69.22000000    82.56000000
   H     82.26000000    71.02000000    81.79000000
   N     80.59000000    66.24000000    89.20000000
   C     80.37000000    64.93000000    89.76000000
   C     80.82000000    63.89000000    88.74000000
   O     80.51000000    63.99000000    87.55000000
   C     78.97000000    64.75000000    90.33000000
   C     78.75000000    65.60000000    91.57000000
   C     78.58000000    63.29000000    90.56000000
   C     77.25000000    65.78000000    91.77000000
   H     79.80000000    66.62000000    88.68000000
   H     81.10000000    64.85000000    90.57000000
   H     78.27000000    65.05000000    89.54000000
   H     79.15000000    66.61000000    91.47000000
   H     79.15000000    65.22000000    92.51000000
   H     78.81000000    62.65000000    89.71000000
   H     79.17000000    62.94000000    91.41000000
   H     77.53000000    63.15000000    90.85000000
   H     77.24000000    66.56000000    92.54000000
   H     76.66000000    66.21000000    90.97000000
   H     76.74000000    64.92000000    92.20000000
   N     81.65000000    62.91000000    89.10000000
   C     82.22000000    61.88000000    88.26000000
   C     81.93000000    60.50000000    88.82000000
   O     81.37000000    60.41000000    89.91000000
   C     83.69000000    62.08000000    87.91000000
   O     84.43000000    62.17000000    89.10000000
   H     81.86000000    62.91000000    90.09000000
   H     81.71000000    61.89000000    87.29000000
   H     83.76000000    62.97000000    87.28000000
   H     84.04000000    61.22000000    87.35000000
   H     83.85000000    62.64000000    89.71000000
   N     82.25000000    59.39000000    88.15000000
   C     81.92000000    58.03000000    88.53000000
   C     82.38000000    57.56000000    89.90000000
   O     81.69000000    56.74000000    90.50000000
   C     82.58000000    57.13000000    87.48000000
   H     82.67000000    59.42000000    87.23000000
   H     80.85000000    57.85000000    88.41000000
   H     83.65000000    57.19000000    87.64000000
   H     82.23000000    56.12000000    87.68000000
   H     82.35000000    57.55000000    86.50000000
   N     83.44000000    58.17000000    90.45000000
   C     83.90000000    58.08000000    91.82000000
   C     82.89000000    58.61000000    92.83000000
   O     83.25000000    58.57000000    94.01000000
   C     85.21000000    58.84000000    91.98000000
   H     83.97000000    58.85000000    89.92000000
   H     84.06000000    57.03000000    92.07000000
   H     85.85000000    58.33000000    91.27000000
   H     85.11000000    59.89000000    91.69000000
   H     85.59000000    58.78000000    93.00000000
   N     81.93000000    59.44000000    92.42000000
   C     81.29000000    60.35000000    93.36000000
   C     79.78000000    60.15000000    93.42000000
   O     79.15000000    60.72000000    94.30000000
   C     81.62000000    61.76000000    92.89000000
   C     83.10000000    62.03000000    93.14000000
   C     83.62000000    63.33000000    92.55000000
   O     84.57000000    63.92000000    93.12000000
   O     83.23000000    63.74000000    91.43000000
   H     81.68000000    59.58000000    91.46000000
   H     81.58000000    60.11000000    94.38000000
   H     81.08000000    62.49000000    93.50000000
   H     81.50000000    61.88000000    91.81000000
   H     83.72000000    61.26000000    92.67000000
   H     83.28000000    61.97000000    94.21000000
   N     79.21000000    59.37000000    92.49000000
   C     77.79000000    59.32000000    92.21000000
   H     77.28800000    60.13500000    92.73200000
   H     77.62700000    59.42200000    91.13700000
   H     77.38500000    58.36700000    92.55100000
   H     79.77000000    58.85000000    91.84000000
  Ca     85.01000000    65.72000000    91.02000000
   O     85.05000000    65.07000000    88.49000000
   H     85.87000000    64.62000000    88.30000000
   H     84.48000000    64.84000000    87.76000000

Ca 1.70



