%chk=holoCaM_loop3_66.0.chk
%nprocshared=48
%mem=10GB
%nosave
#b3lyp/svp scf=(tight,noincore) Test 
#IOP(5/87=12) Density=Current Pop=(MK,readradii) iop(6/33=2) iop(6/42=6)

holoCaM_loop3_66.0 

   0   1
   C     87.40000000    60.80000000     5.21900000
   C     88.82000000    61.01000000     4.69900000
   O     89.48000000    60.06000000     4.28900000
   H     86.71400000    60.71400000     4.37600000
   H     87.36100000    59.88700000     5.81300000
   H     87.11000000    61.64900000     5.83800000
   N     89.28000000    62.26000000     4.73900000
   C     90.65000000    62.65000000     4.44900000
   C     91.62000000    62.18000000     5.52900000
   O     91.25000000    62.21000000     6.69900000
   C     90.84000000    64.14000000     4.21900000
   C     91.98000000    64.46000000     3.26900000
   O     91.77000000    64.95000000     2.13900000
   O     93.13000000    64.00000000     3.44900000
   H     88.59000000    62.96000000     4.97900000
   H     90.96000000    62.13000000     3.53900000
   H     91.01000000    64.60000000     5.18900000
   H     89.89000000    64.46000000     3.77900000
   N     92.81000000    61.72000000     5.12900000
   C     93.92000000    61.29000000     5.94900000
   C     95.18000000    62.14000000     5.92900000
   O     96.17000000    61.88000000     6.60900000
   C     94.22000000    59.81000000     5.69900000
   C     93.05000000    58.84000000     5.79900000
   C     93.26000000    57.37000000     5.43900000
   C     94.21000000    56.72000000     6.44900000
   N     94.76000000    55.40000000     6.11900000
   H     92.86000000    61.64000000     4.11900000
   H     93.63000000    61.38000000     6.99900000
   H     94.97000000    59.41000000     6.37900000
   H     94.67000000    59.61000000     4.73900000
   H     92.30000000    59.18000000     5.08900000
   H     92.59000000    58.99000000     6.77900000
   H     93.68000000    57.29000000     4.43900000
   H     92.32000000    56.82000000     5.49900000
   H     93.59000000    56.62000000     7.34900000
   H     94.97000000    57.39000000     6.84900000
   H     94.16000000    54.87000000     5.48900000
   H     95.61000000    55.50000000     5.58900000
   H     94.95000000    54.76000000     6.87900000
   N     95.31000000    63.19000000     5.10900000
   C     96.52000000    63.94000000     4.83900000
   C     96.34000000    65.44000000     4.71900000
   O     97.38000000    66.11000000     4.78900000
   C     97.21000000    63.39000000     3.59900000
   C     96.33000000    63.48000000     2.35900000
   O     96.12000000    62.45000000     1.68900000
   O     95.75000000    64.54000000     2.03900000
   H     94.54000000    63.25000000     4.45900000
   H     97.29000000    63.79000000     5.60900000
   H     97.29000000    62.32000000     3.82900000
   H     98.17000000    63.86000000     3.37900000
   N     95.10000000    65.87000000     4.49900000
   C     94.64000000    67.24000000     4.38900000
   C     94.56000000    67.95000000     3.03900000
   O     94.10000000    69.08000000     2.91900000
   H     94.36000000    65.20000000     4.36900000
   H     95.30000000    67.84000000     5.00900000
   H     93.70000000    67.47000000     4.89900000
   N     94.89000000    67.23000000     1.96900000
   C     95.38000000    67.86000000     0.75900000
   C     94.28000000    68.34000000    -0.17100000
   O     94.57000000    68.81000000    -1.27100000
   C     96.44000000    66.98000000     0.10900000
   C     95.85000000    65.95000000    -0.84100000
   N     96.66000000    65.54000000    -1.81100000
   O     94.75000000    65.46000000    -0.58100000
   H     95.09000000    66.26000000     2.17900000
   H     95.91000000    68.72000000     1.16900000
   H     97.07000000    66.54000000     0.87900000
   H     96.98000000    67.66000000    -0.56100000
   H     97.62000000    65.83000000    -1.71100000
   H     96.45000000    64.70000000    -2.34100000
   N     93.00000000    68.19000000     0.16900000
   C     91.80000000    68.66000000    -0.49100000
   C     91.18000000    67.71000000    -1.51100000
   O     90.27000000    68.04000000    -2.27100000
   H     92.93000000    68.00000000     1.15900000
   H     91.96000000    69.63000000    -0.98100000
   H     91.11000000    68.89000000     0.31900000
   N     91.69000000    66.48000000    -1.55100000
   C     91.36000000    65.46000000    -2.53100000
   C     91.20000000    64.13000000    -1.82100000
   O     91.98000000    63.81000000    -0.93100000
   C     92.47000000    65.33000000    -3.58100000
   C     92.71000000    66.62000000    -4.32100000
   C     94.00000000    67.15000000    -4.34100000
   C     91.71000000    67.27000000    -5.06100000
   C     94.31000000    68.38000000    -4.94100000
   C     92.03000000    68.46000000    -5.71100000
   C     93.33000000    69.01000000    -5.73100000
   O     93.54000000    70.21000000    -6.35100000
   H     92.44000000    66.26000000    -0.91100000
   H     90.40000000    65.76000000    -2.93100000
   H     92.17000000    64.54000000    -4.26100000
   H     93.40000000    65.03000000    -3.10100000
   H     94.69000000    66.62000000    -3.70100000
   H     90.79000000    66.72000000    -5.16100000
   H     95.29000000    68.77000000    -4.73100000
   H     91.25000000    69.01000000    -6.22100000
   H     92.79000000    70.51000000    -6.88100000
   N     90.32000000    63.24000000    -2.29100000
   C     90.10000000    61.84000000    -1.98100000
   C     90.70000000    60.97000000    -3.07100000
   O     90.53000000    61.15000000    -4.28100000
   C     88.64000000    61.65000000    -1.56100000
   C     88.44000000    62.24000000    -0.16100000
   C     88.18000000    60.21000000    -1.72100000
   C     88.91000000    61.47000000     1.05900000
   H     89.86000000    63.51000000    -3.15100000
   H     90.70000000    61.56000000    -1.12100000
   H     88.04000000    62.24000000    -2.24100000
   H     87.37000000    62.41000000    -0.06100000
   H     88.70000000    63.30000000    -0.21100000
   H     87.30000000    60.10000000    -1.08100000
   H     88.05000000    59.96000000    -2.77100000
   H     88.99000000    59.57000000    -1.35100000
   H     88.31000000    61.83000000     1.89900000
   H     88.59000000    60.42000000     1.03900000
   H     89.97000000    61.67000000     1.19900000
   N     91.49000000    60.00000000    -2.60100000
   C     92.24000000    58.98000000    -3.29100000
   C     91.76000000    57.58000000    -2.93100000
   O     91.00000000    57.40000000    -1.98100000
   C     93.71000000    59.21000000    -2.95100000
   O     93.79000000    58.75000000    -1.61100000
   H     91.58000000    60.05000000    -1.60100000
   H     92.11000000    59.09000000    -4.37100000
   H     94.13000000    60.20000000    -3.14100000
   H     94.18000000    58.41000000    -3.52100000
   H     93.83000000    59.52000000    -1.04100000
   N     92.03000000    56.59000000    -3.79100000
   C     91.55000000    55.23000000    -3.75100000
   C     92.13000000    54.50000000    -2.55100000
   O     91.49000000    53.62000000    -1.97100000
   C     91.79000000    54.53000000    -5.08100000
   H     92.65000000    56.87000000    -4.54100000
   H     90.48000000    55.31000000    -3.56100000
   H     91.14000000    53.65000000    -5.07100000
   H     91.56000000    55.26000000    -5.86100000
   H     92.85000000    54.31000000    -5.20100000
   N     93.38000000    54.68000000    -2.13100000
   C     93.88000000    54.22000000    -0.85100000
   C     93.15000000    54.80000000     0.35900000
   O     92.81000000    54.01000000     1.22900000
   C     95.36000000    54.55000000    -0.68100000
   H     93.94000000    55.36000000    -2.62100000
   H     93.82000000    53.13000000    -0.87100000
   H     95.44000000    55.63000000    -0.67100000
   H     95.78000000    54.09000000     0.21900000
   H     95.87000000    54.15000000    -1.55100000
   N     92.83000000    56.10000000     0.30900000
   C     91.86000000    56.59000000     1.26900000
   C     90.45000000    56.04000000     1.11900000
   O     89.74000000    55.95000000     2.11900000
   C     91.77000000    58.12000000     1.19900000
   C     92.94000000    58.94000000     1.71900000
   C     92.86000000    60.39000000     1.24900000
   O     93.03000000    61.23000000     2.14900000
   O     92.77000000    60.71000000     0.03900000
   H     93.15000000    56.69000000    -0.44100000
   H     92.21000000    56.47000000     2.29900000
   H     90.93000000    58.43000000     1.81900000
   H     91.49000000    58.40000000     0.17900000
   H     93.83000000    58.47000000     1.31900000
   H     92.95000000    58.92000000     2.80900000
   N     89.97000000    55.74000000    -0.09100000
   C     88.64000000    55.21000000    -0.25100000
   H     87.97000000    56.00400000    -0.58100000
   H     88.65300000    54.41400000    -0.99500000
   H     88.29000000    54.81200000     0.70100000
   H     90.39000000    56.32000000    -0.81100000
  Ca     93.71000000    63.43000000     0.88000000
   O     95.21000000    62.32000000    -1.09100000
   H     95.27000000    62.31000000    -2.04100000
   H     95.97000000    61.82000000    -0.79100000

Ca 1.70



