%chk=holoCaM_loop3_71.0.chk
%nprocshared=48
%mem=10GB
%nosave
#b3lyp/svp scf=(tight,noincore) Test 
#IOP(5/87=12) Density=Current Pop=(MK,readradii) iop(6/33=2) iop(6/42=6)

holoCaM_loop3_71.0 

   0   1
   C     44.23000000    52.94000000    49.72000000
   C     44.57000000    52.34000000    51.07000000
   O     43.68000000    52.38000000    51.92000000
   H     43.40400000    53.64300000    49.83300000
   H     45.10100000    53.46400000    49.32500000
   H     43.93900000    52.14600000    49.03200000
   N     45.81000000    51.92000000    51.32000000
   C     46.45000000    51.65000000    52.59000000
   C     46.55000000    52.98000000    53.31000000
   O     47.23000000    53.93000000    52.94000000
   C     47.78000000    50.94000000    52.38000000
   C     48.45000000    50.38000000    53.62000000
   O     47.87000000    50.50000000    54.72000000
   O     49.62000000    49.98000000    53.48000000
   H     46.31000000    51.79000000    50.45000000
   H     45.88000000    50.89000000    53.14000000
   H     48.43000000    51.77000000    52.09000000
   H     47.69000000    50.08000000    51.72000000
   N     45.80000000    53.05000000    54.42000000
   C     45.58000000    54.30000000    55.12000000
   C     46.76000000    54.68000000    56.00000000
   O     46.87000000    55.84000000    56.41000000
   C     44.33000000    54.18000000    55.99000000
   C     43.77000000    55.55000000    56.34000000
   C     42.45000000    55.24000000    57.04000000
   C     41.76000000    56.54000000    57.43000000
   N     42.45000000    57.27000000    58.51000000
   H     45.12000000    52.33000000    54.60000000
   H     45.58000000    55.14000000    54.42000000
   H     44.54000000    53.59000000    56.88000000
   H     43.59000000    53.56000000    55.49000000
   H     43.64000000    56.15000000    55.44000000
   H     44.37000000    56.01000000    57.13000000
   H     42.61000000    54.64000000    57.93000000
   H     41.88000000    54.68000000    56.30000000
   H     40.70000000    56.40000000    57.64000000
   H     41.73000000    57.28000000    56.63000000
   H     43.36000000    57.41000000    58.10000000
   H     42.05000000    58.17000000    58.77000000
   H     42.57000000    56.63000000    59.28000000
   N     47.61000000    53.74000000    56.40000000
   C     48.72000000    53.97000000    57.31000000
   C     50.04000000    53.41000000    56.81000000
   O     51.08000000    53.58000000    57.45000000
   C     48.32000000    53.39000000    58.66000000
   C     47.56000000    52.07000000    58.73000000
   O     46.94000000    51.97000000    59.82000000
   O     47.46000000    51.28000000    57.77000000
   H     47.38000000    52.79000000    56.15000000
   H     48.88000000    55.05000000    57.34000000
   H     47.86000000    54.20000000    59.21000000
   H     49.26000000    53.25000000    59.21000000
   N     50.08000000    52.64000000    55.71000000
   C     51.29000000    52.00000000    55.24000000
   C     51.78000000    50.93000000    56.22000000
   O     52.71000000    51.11000000    56.99000000
   H     49.34000000    52.72000000    55.03000000
   H     52.06000000    52.77000000    55.27000000
   H     51.30000000    51.69000000    54.20000000
   N     51.15000000    49.77000000    56.04000000
   C     51.79000000    48.51000000    56.36000000
   C     51.80000000    47.42000000    55.29000000
   O     52.15000000    46.27000000    55.53000000
   C     51.20000000    47.98000000    57.66000000
   C     49.77000000    47.47000000    57.75000000
   N     49.31000000    46.96000000    58.90000000
   O     49.06000000    47.67000000    56.77000000
   H     50.41000000    49.76000000    55.35000000
   H     52.85000000    48.68000000    56.54000000
   H     51.33000000    48.76000000    58.41000000
   H     51.81000000    47.15000000    58.03000000
   H     49.88000000    46.82000000    59.72000000
   H     48.38000000    46.55000000    58.91000000
   N     51.32000000    47.74000000    54.08000000
   C     51.41000000    46.75000000    53.03000000
   C     50.20000000    45.82000000    53.04000000
   O     50.01000000    44.98000000    52.16000000
   H     51.08000000    48.70000000    53.87000000
   H     52.34000000    46.18000000    53.04000000
   H     51.42000000    47.24000000    52.06000000
   N     49.28000000    46.01000000    53.98000000
   C     47.93000000    45.48000000    53.93000000
   C     46.80000000    46.50000000    53.90000000
   O     46.99000000    47.55000000    54.51000000
   C     47.73000000    44.53000000    55.11000000
   C     48.85000000    43.53000000    55.29000000
   C     49.86000000    43.81000000    56.22000000
   C     49.07000000    42.56000000    54.31000000
   C     51.01000000    43.02000000    56.25000000
   C     50.27000000    41.85000000    54.25000000
   C     51.24000000    42.04000000    55.26000000
   O     52.47000000    41.48000000    55.11000000
   H     49.42000000    46.64000000    54.75000000
   H     47.90000000    44.87000000    53.02000000
   H     46.86000000    43.89000000    55.00000000
   H     47.58000000    45.18000000    55.97000000
   H     49.81000000    44.68000000    56.87000000
   H     48.40000000    42.35000000    53.48000000
   H     51.72000000    43.32000000    57.00000000
   H     50.60000000    41.20000000    53.45000000
   H     52.55000000    40.83000000    54.40000000
   N     45.73000000    46.24000000    53.14000000
   C     44.55000000    47.07000000    53.12000000
   C     43.37000000    46.27000000    53.67000000
   O     43.25000000    45.10000000    53.32000000
   C     44.25000000    47.54000000    51.70000000
   C     45.27000000    48.51000000    51.12000000
   C     42.87000000    48.17000000    51.50000000
   C     45.45000000    48.46000000    49.61000000
   H     45.78000000    45.47000000    52.49000000
   H     44.68000000    47.98000000    53.71000000
   H     44.15000000    46.59000000    51.19000000
   H     46.26000000    48.23000000    51.48000000
   H     45.16000000    49.57000000    51.34000000
   H     42.66000000    48.83000000    52.34000000
   H     42.75000000    48.58000000    50.50000000
   H     42.11000000    47.39000000    51.56000000
   H     44.56000000    48.69000000    49.01000000
   H     46.18000000    49.23000000    49.37000000
   H     45.88000000    47.50000000    49.34000000
   N     42.55000000    46.89000000    54.52000000
   C     41.37000000    46.26000000    55.07000000
   C     40.12000000    46.98000000    54.57000000
   O     40.17000000    48.03000000    53.94000000
   C     41.43000000    46.16000000    56.59000000
   O     41.14000000    47.42000000    57.15000000
   H     42.78000000    47.77000000    54.97000000
   H     41.34000000    45.23000000    54.71000000
   H     42.43000000    45.82000000    56.86000000
   H     40.69000000    45.49000000    57.03000000
   H     41.43000000    47.48000000    58.06000000
   N     38.99000000    46.28000000    54.69000000
   C     37.72000000    46.77000000    54.19000000
   C     37.38000000    48.15000000    54.74000000
   O     37.09000000    49.11000000    54.02000000
   C     36.54000000    45.84000000    54.40000000
   H     39.03000000    45.39000000    55.17000000
   H     37.85000000    46.87000000    53.12000000
   H     36.44000000    45.45000000    55.41000000
   H     35.59000000    46.30000000    54.12000000
   H     36.72000000    44.89000000    53.89000000
   N     37.67000000    48.31000000    56.03000000
   C     37.64000000    49.57000000    56.74000000
   C     38.57000000    50.66000000    56.24000000
   O     38.30000000    51.84000000    56.48000000
   C     37.81000000    49.23000000    58.22000000
   H     37.94000000    47.46000000    56.51000000
   H     36.64000000    50.00000000    56.68000000
   H     38.76000000    48.76000000    58.49000000
   H     37.68000000    50.20000000    58.69000000
   H     37.03000000    48.56000000    58.59000000
   N     39.68000000    50.32000000    55.59000000
   C     40.53000000    51.23000000    54.84000000
   C     40.14000000    51.53000000    53.40000000
   O     40.28000000    52.66000000    52.95000000
   C     41.95000000    50.68000000    54.95000000
   C     42.42000000    50.51000000    56.39000000
   C     43.83000000    49.96000000    56.46000000
   O     44.43000000    49.93000000    57.56000000
   O     44.47000000    49.68000000    55.42000000
   H     39.89000000    49.34000000    55.48000000
   H     40.50000000    52.14000000    55.44000000
   H     42.72000000    51.31000000    54.52000000
   H     41.88000000    49.71000000    54.45000000
   H     41.71000000    49.87000000    56.92000000
   H     42.46000000    51.51000000    56.83000000
   N     39.52000000    50.60000000    52.67000000
   C     38.95000000    50.78000000    51.35000000
   H     38.06100000    51.40600000    51.42100000
   H     39.68100000    51.26100000    50.70000000
   H     38.67800000    49.80900000    50.93600000
   H     39.55000000    49.69000000    53.10000000
  Ca     46.82000000    49.19000000    56.53000000
   O     46.52000000    48.68000000    59.12000000
   H     46.81000000    47.87000000    59.53000000
   H     46.22000000    49.23000000    59.85000000

Ca 1.70



