%chk=holoCaM_loop3_87.0.chk
%nprocshared=48
%mem=10GB
%nosave
#b3lyp/svp scf=(tight,noincore) Test 
#IOP(5/87=12) Density=Current Pop=(MK,readradii) iop(6/33=2) iop(6/42=6)

holoCaM_loop3_87.0 

   0   1
   C     34.66000000    46.21000000    41.48000000
   C     34.73000000    45.74000000    42.93000000
   O     33.75000000    45.26000000    43.49000000
   H     34.40300000    47.26900000    41.45400000
   H     35.62800000    46.06000000    41.00200000
   H     33.89900000    45.63900000    40.94900000
   N     35.90000000    45.84000000    43.56000000
   C     36.24000000    45.46000000    44.91000000
   C     35.74000000    46.60000000    45.79000000
   O     36.15000000    47.76000000    45.73000000
   C     37.73000000    45.19000000    45.09000000
   C     38.04000000    44.58000000    46.46000000
   O     37.10000000    44.24000000    47.21000000
   O     39.21000000    44.39000000    46.84000000
   H     36.69000000    46.15000000    43.01000000
   H     35.69000000    44.56000000    45.21000000
   H     38.30000000    46.09000000    44.91000000
   H     38.03000000    44.44000000    44.36000000
   N     35.01000000    46.22000000    46.84000000
   C     34.50000000    47.15000000    47.83000000
   C     35.52000000    47.47000000    48.91000000
   O     35.74000000    48.67000000    49.10000000
   C     33.19000000    46.63000000    48.41000000
   C     32.64000000    47.61000000    49.45000000
   C     31.24000000    47.34000000    50.00000000
   C     30.70000000    48.55000000    50.74000000
   N     29.50000000    48.13000000    51.47000000
   H     34.70000000    45.27000000    46.96000000
   H     34.24000000    48.06000000    47.30000000
   H     33.30000000    45.62000000    48.81000000
   H     32.43000000    46.66000000    47.64000000
   H     32.59000000    48.52000000    48.84000000
   H     33.33000000    47.63000000    50.29000000
   H     31.22000000    46.46000000    50.64000000
   H     30.53000000    47.24000000    49.17000000
   H     30.44000000    49.30000000    49.99000000
   H     31.46000000    48.95000000    51.41000000
   H     28.77000000    48.83000000    51.51000000
   H     29.09000000    47.31000000    51.04000000
   H     29.82000000    47.92000000    52.41000000
   N     36.11000000    46.53000000    49.66000000
   C     36.93000000    46.91000000    50.79000000
   C     38.38000000    47.07000000    50.35000000
   O     39.20000000    47.54000000    51.14000000
   C     36.73000000    45.93000000    51.95000000
   C     36.89000000    44.46000000    51.57000000
   O     37.66000000    44.12000000    50.65000000
   O     36.33000000    43.70000000    52.39000000
   H     36.08000000    45.56000000    49.39000000
   H     36.62000000    47.87000000    51.20000000
   H     35.70000000    45.98000000    52.32000000
   H     37.44000000    46.15000000    52.74000000
   N     38.76000000    46.84000000    49.09000000
   C     40.13000000    47.10000000    48.70000000
   C     41.25000000    46.34000000    49.40000000
   O     42.39000000    46.79000000    49.44000000
   H     38.10000000    46.36000000    48.50000000
   H     40.36000000    48.16000000    48.77000000
   H     40.22000000    46.90000000    47.63000000
   N     40.89000000    45.09000000    49.70000000
   C     41.90000000    44.13000000    50.09000000
   C     42.54000000    43.43000000    48.90000000
   O     43.14000000    42.38000000    49.09000000
   C     41.28000000    43.16000000    51.09000000
   C     40.32000000    42.15000000    50.47000000
   N     40.08000000    41.06000000    51.20000000
   O     39.96000000    42.25000000    49.30000000
   H     39.93000000    44.84000000    49.52000000
   H     42.76000000    44.59000000    50.58000000
   H     40.70000000    43.69000000    51.85000000
   H     42.10000000    42.63000000    51.58000000
   H     40.30000000    41.10000000    52.18000000
   H     39.52000000    40.26000000    50.92000000
   N     42.11000000    43.76000000    47.68000000
   C     42.69000000    43.10000000    46.53000000
   C     42.06000000    41.80000000    46.06000000
   O     42.71000000    40.97000000    45.42000000
   H     41.50000000    44.57000000    47.61000000
   H     43.74000000    42.88000000    46.68000000
   H     42.65000000    43.76000000    45.66000000
   N     40.81000000    41.41000000    46.33000000
   C     40.10000000    40.28000000    45.77000000
   C     38.63000000    40.69000000    45.70000000
   O     38.17000000    41.52000000    46.48000000
   C     40.33000000    38.95000000    46.48000000
   C     41.63000000    38.84000000    47.24000000
   C     41.60000000    39.30000000    48.56000000
   C     42.67000000    38.08000000    46.69000000
   C     42.65000000    38.91000000    49.40000000
   C     43.71000000    37.72000000    47.54000000
   C     43.71000000    38.15000000    48.88000000
   O     44.83000000    37.99000000    49.64000000
   H     40.26000000    42.07000000    46.86000000
   H     40.48000000    40.11000000    44.76000000
   H     40.23000000    38.17000000    45.73000000
   H     39.54000000    38.85000000    47.22000000
   H     40.69000000    39.77000000    48.90000000
   H     42.77000000    37.78000000    45.65000000
   H     42.79000000    39.20000000    50.43000000
   H     44.54000000    37.18000000    47.10000000
   H     45.47000000    37.44000000    49.18000000
   N     37.96000000    40.10000000    44.71000000
   C     36.53000000    40.22000000    44.47000000
   C     35.81000000    38.90000000    44.70000000
   O     36.28000000    37.85000000    44.27000000
   C     36.24000000    40.74000000    43.07000000
   C     36.90000000    42.07000000    42.73000000
   C     34.75000000    40.85000000    42.76000000
   C     37.27000000    42.21000000    41.26000000
   H     38.52000000    39.74000000    43.95000000
   H     36.17000000    41.01000000    45.14000000
   H     36.72000000    40.02000000    42.40000000
   H     37.85000000    42.16000000    43.25000000
   H     36.26000000    42.92000000    42.98000000
   H     34.21000000    41.50000000    43.45000000
   H     34.64000000    41.23000000    41.74000000
   H     34.22000000    39.91000000    42.88000000
   H     36.40000000    42.17000000    40.60000000
   H     37.76000000    43.19000000    41.21000000
   H     37.97000000    41.40000000    41.04000000
   N     34.75000000    39.03000000    45.50000000
   C     33.85000000    38.00000000    45.99000000
   C     32.38000000    38.31000000    45.74000000
   O     32.02000000    39.29000000    45.08000000
   C     34.07000000    37.83000000    47.49000000
   O     33.50000000    38.91000000    48.19000000
   H     34.48000000    39.97000000    45.72000000
   H     34.09000000    37.04000000    45.54000000
   H     35.14000000    37.81000000    47.73000000
   H     33.59000000    36.91000000    47.83000000
   H     34.10000000    39.66000000    48.14000000
   N     31.53000000    37.29000000    45.85000000
   C     30.18000000    37.20000000    45.33000000
   C     29.35000000    38.42000000    45.71000000
   O     28.73000000    39.01000000    44.82000000
   C     29.61000000    35.88000000    45.83000000
   H     31.77000000    36.42000000    46.30000000
   H     30.25000000    37.05000000    44.25000000
   H     29.61000000    35.74000000    46.91000000
   H     28.55000000    35.73000000    45.62000000
   H     30.06000000    35.07000000    45.25000000
   N     29.37000000    38.77000000    46.99000000
   C     28.55000000    39.86000000    47.50000000
   C     28.99000000    41.23000000    47.01000000
   O     28.21000000    42.14000000    46.73000000
   C     28.72000000    39.87000000    49.01000000
   H     29.83000000    38.17000000    47.66000000
   H     27.51000000    39.72000000    47.22000000
   H     28.31000000    38.97000000    49.47000000
   H     29.79000000    39.96000000    49.21000000
   H     28.22000000    40.71000000    49.50000000
   N     30.29000000    41.38000000    46.74000000
   C     30.90000000    42.58000000    46.21000000
   C     30.60000000    42.76000000    44.73000000
   O     30.27000000    43.85000000    44.26000000
   C     32.38000000    42.66000000    46.58000000
   C     32.78000000    42.37000000    48.02000000
   C     34.29000000    42.36000000    48.24000000
   O     34.90000000    41.34000000    47.86000000
   O     34.90000000    43.28000000    48.83000000
   H     30.90000000    40.58000000    46.83000000
   H     30.48000000    43.47000000    46.67000000
   H     32.76000000    43.65000000    46.32000000
   H     32.95000000    41.92000000    46.02000000
   H     32.36000000    41.40000000    48.28000000
   H     32.32000000    43.16000000    48.61000000
   N     30.62000000    41.63000000    44.01000000
   C     30.21000000    41.49000000    42.63000000
   H     29.35500000    42.13800000    42.43800000
   H     31.03400000    41.77300000    41.97500000
   H     29.93000000    40.45400000    42.43700000
   H     30.90000000    40.84000000    44.58000000
  Ca     37.37000000    42.47000000    48.89000000
   O     36.60000000    41.30000000    51.34000000
   H     36.44000000    42.12000000    51.81000000
   H     35.93000000    40.70000000    51.65000000

Ca 1.70



