%chk=holoCaM_loop3_80.0.chk
%nprocshared=48
%mem=10GB
%nosave
#b3lyp/svp scf=(tight,noincore) Test 
#IOP(5/87=12) Density=Current Pop=(MK,readradii) iop(6/33=2) iop(6/42=6)

holoCaM_loop3_80.0 

   0   1
   C     55.26000000    47.33000000    35.08000000
   C     55.28000000    45.94000000    35.70000000
   O     54.77000000    45.76000000    36.81000000
   H     55.22600000    48.07900000    35.87100000
   H     56.16000000    47.47500000    34.48200000
   H     54.38000000    47.43200000    34.44500000
   N     55.90000000    44.91000000    35.12000000
   C     55.93000000    43.57000000    35.68000000
   C     56.75000000    43.47000000    36.96000000
   O     57.58000000    44.31000000    37.27000000
   C     56.64000000    42.72000000    34.62000000
   C     56.69000000    41.25000000    34.99000000
   O     55.70000000    40.49000000    34.99000000
   O     57.85000000    40.87000000    35.26000000
   H     56.35000000    45.09000000    34.23000000
   H     54.90000000    43.27000000    35.81000000
   H     57.64000000    43.09000000    34.42000000
   H     56.04000000    42.83000000    33.71000000
   N     56.47000000    42.43000000    37.75000000
   C     56.97000000    42.21000000    39.09000000
   C     58.01000000    41.12000000    39.30000000
   O     58.75000000    41.30000000    40.27000000
   C     55.77000000    42.01000000    40.01000000
   C     54.82000000    43.19000000    40.16000000
   C     55.50000000    44.29000000    40.98000000
   C     54.72000000    45.59000000    40.85000000
   N     55.43000000    46.77000000    41.36000000
   H     55.85000000    41.78000000    37.29000000
   H     57.40000000    43.14000000    39.46000000
   H     56.12000000    41.68000000    40.99000000
   H     55.18000000    41.17000000    39.64000000
   H     53.95000000    42.90000000    40.75000000
   H     54.62000000    43.59000000    39.17000000
   H     56.56000000    44.41000000    40.76000000
   H     55.42000000    44.06000000    42.04000000
   H     53.73000000    45.58000000    41.29000000
   H     54.55000000    45.76000000    39.78000000
   H     54.91000000    47.63000000    41.21000000
   H     55.54000000    46.76000000    42.37000000
   H     56.38000000    46.83000000    41.04000000
   N     58.03000000    40.08000000    38.46000000
   C     58.66000000    38.80000000    38.71000000
   C     59.60000000    38.23000000    37.66000000
   O     60.66000000    37.72000000    38.04000000
   C     57.55000000    37.86000000    39.17000000
   C     56.50000000    37.58000000    38.10000000
   O     56.45000000    38.12000000    36.98000000
   O     55.78000000    36.57000000    38.28000000
   H     57.44000000    40.04000000    37.65000000
   H     59.27000000    38.98000000    39.60000000
   H     57.09000000    38.43000000    39.97000000
   H     57.94000000    36.91000000    39.51000000
   N     59.23000000    38.30000000    36.38000000
   C     59.83000000    37.81000000    35.16000000
   C     59.16000000    36.63000000    34.46000000
   O     59.86000000    36.01000000    33.66000000
   H     58.34000000    38.76000000    36.25000000
   H     60.87000000    37.53000000    35.30000000
   H     59.81000000    38.67000000    34.48000000
   N     57.94000000    36.29000000    34.87000000
   C     57.32000000    35.03000000    34.50000000
   C     56.84000000    34.96000000    33.06000000
   O     56.19000000    33.99000000    32.66000000
   C     56.27000000    34.73000000    35.57000000
   C     54.93000000    35.42000000    35.39000000
   N     53.87000000    34.69000000    35.76000000
   O     54.74000000    36.55000000    34.95000000
   H     57.41000000    36.96000000    35.40000000
   H     58.08000000    34.27000000    34.66000000
   H     56.73000000    35.03000000    36.51000000
   H     56.16000000    33.64000000    35.59000000
   H     54.03000000    33.86000000    36.32000000
   H     52.97000000    35.13000000    35.66000000
   N     57.07000000    36.03000000    32.30000000
   C     56.65000000    36.32000000    30.95000000
   C     55.16000000    36.59000000    30.74000000
   O     54.76000000    36.80000000    29.60000000
   H     57.64000000    36.77000000    32.68000000
   H     56.77000000    35.47000000    30.28000000
   H     57.31000000    37.12000000    30.62000000
   N     54.34000000    36.62000000    31.80000000
   C     52.94000000    36.98000000    31.78000000
   C     52.63000000    38.28000000    32.50000000
   O     53.31000000    38.73000000    33.43000000
   C     52.04000000    35.91000000    32.39000000
   C     52.33000000    34.52000000    31.87000000
   C     52.58000000    33.52000000    32.82000000
   C     52.34000000    34.26000000    30.50000000
   C     52.76000000    32.20000000    32.39000000
   C     52.59000000    32.95000000    30.09000000
   C     52.78000000    31.89000000    31.01000000
   O     53.13000000    30.61000000    30.73000000
   H     54.72000000    36.47000000    32.73000000
   H     52.55000000    37.12000000    30.77000000
   H     50.98000000    36.18000000    32.31000000
   H     52.21000000    35.94000000    33.47000000
   H     52.67000000    33.85000000    33.85000000
   H     52.31000000    35.09000000    29.80000000
   H     52.95000000    31.44000000    33.13000000
   H     52.74000000    32.82000000    29.03000000
   H     53.14000000    30.51000000    29.78000000
   N     51.48000000    38.89000000    32.20000000
   C     50.77000000    39.87000000    32.99000000
   C     49.57000000    39.28000000    33.70000000
   O     48.70000000    38.61000000    33.13000000
   C     50.40000000    41.10000000    32.16000000
   C     51.63000000    41.84000000    31.64000000
   C     49.46000000    42.08000000    32.86000000
   C     52.40000000    42.70000000    32.65000000
   H     50.96000000    38.48000000    31.44000000
   H     51.44000000    40.19000000    33.79000000
   H     49.89000000    40.64000000    31.32000000
   H     51.45000000    42.50000000    30.80000000
   H     52.30000000    41.10000000    31.21000000
   H     49.48000000    43.03000000    32.32000000
   H     48.45000000    41.69000000    33.01000000
   H     49.77000000    42.17000000    33.90000000
   H     53.32000000    43.00000000    32.16000000
   H     51.88000000    43.64000000    32.86000000
   H     52.69000000    42.17000000    33.56000000
   N     49.56000000    39.56000000    35.01000000
   C     48.52000000    39.35000000    35.99000000
   C     47.53000000    40.50000000    35.85000000
   O     47.83000000    41.64000000    35.52000000
   C     49.07000000    39.42000000    37.42000000
   O     49.81000000    38.24000000    37.64000000
   H     50.41000000    39.88000000    35.46000000
   H     48.00000000    38.43000000    35.75000000
   H     48.24000000    39.35000000    38.12000000
   H     49.69000000    40.31000000    37.50000000
   H     49.70000000    38.04000000    38.58000000
   N     46.29000000    40.27000000    36.30000000
   C     45.32000000    41.33000000    36.42000000
   C     45.74000000    42.54000000    37.24000000
   O     45.61000000    43.68000000    36.80000000
   C     44.02000000    40.80000000    37.02000000
   H     46.09000000    39.34000000    36.65000000
   H     45.05000000    41.63000000    35.41000000
   H     43.20000000    41.49000000    37.22000000
   H     43.69000000    39.96000000    36.42000000
   H     44.26000000    40.33000000    37.98000000
   N     46.46000000    42.26000000    38.34000000
   C     47.08000000    43.22000000    39.23000000
   C     48.21000000    44.03000000    38.61000000
   O     48.40000000    45.19000000    38.99000000
   C     47.63000000    42.41000000    40.41000000
   H     46.41000000    41.29000000    38.58000000
   H     46.36000000    43.90000000    39.69000000
   H     48.56000000    41.97000000    40.03000000
   H     47.84000000    43.06000000    41.26000000
   H     46.92000000    41.64000000    40.69000000
   N     48.91000000    43.43000000    37.65000000
   C     49.88000000    44.14000000    36.83000000
   C     49.12000000    44.97000000    35.81000000
   O     49.52000000    46.11000000    35.58000000
   C     50.85000000    43.15000000    36.21000000
   C     52.09000000    42.80000000    37.03000000
   C     52.72000000    41.45000000    36.71000000
   O     53.82000000    41.14000000    37.22000000
   O     52.17000000    40.59000000    35.99000000
   H     48.58000000    42.54000000    37.31000000
   H     50.44000000    44.85000000    37.45000000
   H     51.18000000    43.64000000    35.29000000
   H     50.25000000    42.28000000    35.95000000
   H     51.80000000    42.79000000    38.08000000
   H     52.86000000    43.56000000    36.94000000
   N     48.03000000    44.52000000    35.19000000
   C     47.21000000    45.30000000    34.28000000
   H     46.30900000    45.63000000    34.79600000
   H     47.77200000    46.17000000    33.93900000
   H     46.93300000    44.68600000    33.42300000
   H     47.64000000    43.64000000    35.52000000
  Ca     54.15000000    38.86000000    36.04000000
   O     51.79000000    37.55000000    36.04000000
   H     51.33000000    36.75000000    35.81000000
   H     51.21000000    37.98000000    36.67000000

Ca 1.70



