%chk=holoCaM_loop3_94.0.chk
%nprocshared=48
%mem=10GB
%nosave
#b3lyp/svp scf=(tight,noincore) Test 
#IOP(5/87=12) Density=Current Pop=(MK,readradii) iop(6/33=2) iop(6/42=6)

holoCaM_loop3_94.0 

   0   1
   C     49.20000000    40.34000000    23.37000000
   C     49.68000000    39.71000000    24.67000000
   O     49.44000000    40.25000000    25.74000000
   H     48.32400000    40.95800000    23.56800000
   H     49.99400000    40.95900000    22.95100000
   H     48.93700000    39.55500000    22.66100000
   N     50.50000000    38.65000000    24.66000000
   C     51.31000000    38.20000000    25.77000000
   C     52.45000000    39.21000000    25.88000000
   O     52.89000000    39.75000000    24.87000000
   C     51.74000000    36.78000000    25.43000000
   C     52.88000000    36.34000000    26.33000000
   O     52.62000000    35.54000000    27.25000000
   O     54.06000000    36.71000000    26.11000000
   H     50.87000000    38.35000000    23.77000000
   H     50.71000000    38.19000000    26.68000000
   H     52.20000000    36.68000000    24.44000000
   H     50.89000000    36.10000000    25.48000000
   N     52.96000000    39.50000000    27.07000000
   C     54.11000000    40.34000000    27.36000000
   C     55.17000000    39.69000000    28.24000000
   O     55.95000000    40.38000000    28.87000000
   C     53.69000000    41.68000000    27.95000000
   C     52.84000000    42.53000000    27.01000000
   C     52.41000000    43.87000000    27.60000000
   C     51.31000000    44.67000000    26.92000000
   N     51.39000000    46.07000000    27.38000000
   H     52.48000000    39.12000000    27.87000000
   H     54.54000000    40.55000000    26.38000000
   H     54.51000000    42.35000000    28.20000000
   H     53.11000000    41.45000000    28.85000000
   H     51.96000000    41.94000000    26.78000000
   H     53.31000000    42.76000000    26.05000000
   H     53.32000000    44.48000000    27.50000000
   H     52.19000000    43.60000000    28.63000000
   H     50.37000000    44.22000000    27.23000000
   H     51.26000000    44.49000000    25.85000000
   H     50.87000000    46.68000000    26.77000000
   H     51.21000000    46.14000000    28.37000000
   H     52.34000000    46.42000000    27.35000000
   N     55.19000000    38.36000000    28.31000000
   C     56.13000000    37.67000000    29.17000000
   C     56.72000000    36.35000000    28.70000000
   O     57.62000000    35.83000000    29.37000000
   C     55.51000000    37.46000000    30.55000000
   C     54.63000000    36.24000000    30.81000000
   O     54.53000000    35.80000000    31.97000000
   O     54.12000000    35.61000000    29.86000000
   H     54.63000000    37.73000000    27.75000000
   H     57.02000000    38.29000000    29.25000000
   H     55.02000000    38.37000000    30.88000000
   H     56.35000000    37.30000000    31.24000000
   N     56.28000000    35.87000000    27.54000000
   C     56.80000000    34.70000000    26.85000000
   C     56.44000000    33.30000000    27.34000000
   O     57.17000000    32.32000000    27.19000000
   H     55.48000000    36.37000000    27.20000000
   H     57.88000000    34.79000000    26.82000000
   H     56.44000000    34.75000000    25.83000000
   N     55.25000000    33.16000000    27.93000000
   C     54.54000000    31.91000000    28.13000000
   C     53.51000000    31.82000000    27.02000000
   O     53.19000000    30.67000000    26.73000000
   C     53.91000000    31.84000000    29.52000000
   C     52.40000000    31.93000000    29.61000000
   N     51.61000000    30.93000000    30.01000000
   O     51.81000000    32.94000000    29.22000000
   H     54.73000000    33.97000000    28.23000000
   H     55.18000000    31.03000000    28.13000000
   H     54.31000000    32.63000000    30.17000000
   H     54.34000000    30.92000000    29.91000000
   H     52.06000000    30.03000000    30.15000000
   H     50.62000000    31.08000000    30.11000000
   N     53.00000000    32.90000000    26.42000000
   C     52.20000000    32.85000000    25.21000000
   C     50.71000000    32.56000000    25.30000000
   O     49.94000000    32.41000000    24.34000000
   H     53.25000000    33.79000000    26.82000000
   H     52.74000000    32.22000000    24.50000000
   H     52.30000000    33.83000000    24.74000000
   N     50.27000000    32.45000000    26.55000000
   C     48.89000000    32.58000000    26.99000000
   C     48.72000000    33.96000000    27.61000000
   O     49.66000000    34.59000000    28.09000000
   C     48.50000000    31.41000000    27.90000000
   C     48.72000000    30.01000000    27.40000000
   C     49.01000000    28.96000000    28.27000000
   C     48.53000000    29.70000000    26.04000000
   C     49.27000000    27.68000000    27.77000000
   C     48.75000000    28.41000000    25.53000000
   C     49.19000000    27.39000000    26.39000000
   O     49.54000000    26.15000000    25.96000000
   H     51.01000000    32.46000000    27.24000000
   H     48.22000000    32.51000000    26.14000000
   H     47.44000000    31.64000000    27.96000000
   H     48.91000000    31.52000000    28.90000000
   H     49.07000000    29.25000000    29.31000000
   H     48.16000000    30.47000000    25.39000000
   H     49.54000000    26.91000000    28.48000000
   H     48.47000000    28.16000000    24.51000000
   H     49.55000000    26.02000000    25.01000000
   N     47.50000000    34.43000000    27.84000000
   C     47.18000000    35.77000000    28.30000000
   C     46.54000000    35.75000000    29.68000000
   O     45.53000000    35.11000000    29.96000000
   C     46.38000000    36.48000000    27.21000000
   C     47.12000000    36.49000000    25.87000000
   C     46.02000000    37.93000000    27.48000000
   C     46.51000000    37.18000000    24.65000000
   H     46.72000000    33.89000000    27.48000000
   H     48.11000000    36.33000000    28.40000000
   H     45.49000000    35.90000000    26.96000000
   H     47.39000000    35.52000000    25.44000000
   H     48.06000000    37.01000000    26.07000000
   H     45.13000000    38.18000000    26.89000000
   H     45.50000000    38.12000000    28.42000000
   H     46.86000000    38.59000000    27.22000000
   H     46.41000000    38.26000000    24.73000000
   H     47.13000000    36.98000000    23.78000000
   H     45.57000000    36.67000000    24.44000000
   N     47.13000000    36.59000000    30.54000000
   C     46.71000000    36.91000000    31.89000000
   C     45.84000000    38.16000000    31.99000000
   O     45.75000000    38.96000000    31.06000000
   C     47.94000000    37.08000000    32.77000000
   O     48.72000000    38.19000000    32.38000000
   H     47.87000000    37.11000000    30.10000000
   H     46.19000000    36.01000000    32.22000000
   H     48.57000000    36.19000000    32.81000000
   H     47.63000000    37.31000000    33.78000000
   H     49.02000000    37.98000000    31.50000000
   N     45.20000000    38.38000000    33.14000000
   C     44.41000000    39.54000000    33.48000000
   C     45.19000000    40.85000000    33.38000000
   O     44.59000000    41.76000000    32.80000000
   C     43.61000000    39.29000000    34.75000000
   H     45.33000000    37.72000000    33.89000000
   H     43.66000000    39.63000000    32.70000000
   H     42.94000000    38.46000000    34.51000000
   H     44.24000000    39.03000000    35.60000000
   H     42.97000000    40.15000000    34.96000000
   N     46.49000000    40.88000000    33.65000000
   C     47.35000000    42.04000000    33.52000000
   C     47.66000000    42.39000000    32.07000000
   O     47.53000000    43.56000000    31.71000000
   C     48.68000000    41.68000000    34.16000000
   H     46.85000000    40.03000000    34.07000000
   H     46.81000000    42.82000000    34.07000000
   H     48.53000000    41.49000000    35.23000000
   H     49.15000000    40.86000000    33.62000000
   H     49.42000000    42.48000000    34.15000000
   N     47.79000000    41.38000000    31.20000000
   C     47.99000000    41.51000000    29.77000000
   C     46.73000000    41.90000000    29.02000000
   O     46.80000000    42.85000000    28.24000000
   C     48.53000000    40.22000000    29.17000000
   C     50.01000000    40.00000000    29.47000000
   C     50.45000000    38.54000000    29.44000000
   O     51.61000000    38.26000000    29.08000000
   O     49.62000000    37.62000000    29.67000000
   H     47.84000000    40.47000000    31.65000000
   H     48.77000000    42.25000000    29.55000000
   H     48.38000000    40.13000000    28.10000000
   H     47.86000000    39.48000000    29.60000000
   H     50.38000000    40.35000000    30.43000000
   H     50.64000000    40.55000000    28.76000000
   N     45.59000000    41.40000000    29.50000000
   C     44.27000000    41.81000000    29.06000000
   H     43.59500000    41.83900000    29.91500000
   H     44.32800000    42.80100000    28.61000000
   H     43.89400000    41.09800000    28.32500000
   H     45.67000000    40.72000000    30.24000000
  Ca     51.59000000    35.62000000    29.61000000
   O     49.54000000    34.65000000    30.98000000
   H     49.73000000    34.50000000    31.91000000
   H     49.36000000    33.78000000    30.63000000

Ca 1.70



