%chk=holoCaM_loop3_93.0.chk
%nprocshared=48
%mem=10GB
%nosave
#b3lyp/svp scf=(tight,noincore) Test 
#IOP(5/87=12) Density=Current Pop=(MK,readradii) iop(6/33=2) iop(6/42=6)

holoCaM_loop3_93.0 

   0   1
   C     90.94000000    56.10000000     4.92000000
   C     92.30000000    56.52000000     4.38000000
   O     93.24000000    55.74000000     4.18000000
   H     90.19600000    56.17300000     4.12600000
   H     90.99200000    55.07100000     5.27500000
   H     90.65700000    56.75600000     5.74400000
   N     92.55000000    57.82000000     4.23000000
   C     93.77000000    58.47000000     3.79000000
   C     94.85000000    58.32000000     4.85000000
   O     94.64000000    58.61000000     6.03000000
   C     93.41000000    59.90000000     3.37000000
   C     94.66000000    60.65000000     2.96000000
   O     94.53000000    61.77000000     2.41000000
   O     95.83000000    60.22000000     3.05000000
   H     91.74000000    58.38000000     4.44000000
   H     94.07000000    57.98000000     2.86000000
   H     92.92000000    60.41000000     4.20000000
   H     92.84000000    59.74000000     2.45000000
   N     96.03000000    57.85000000     4.44000000
   C     97.07000000    57.33000000     5.29000000
   C     98.03000000    58.42000000     5.75000000
   O     98.85000000    58.17000000     6.62000000
   C     97.77000000    56.10000000     4.70000000
   C     96.83000000    54.96000000     4.34000000
   C     97.57000000    53.80000000     3.68000000
   C     98.52000000    53.10000000     4.65000000
   N     99.78000000    52.72000000     3.99000000
   H     96.12000000    57.75000000     3.43000000
   H     96.66000000    56.85000000     6.17000000
   H     98.50000000    55.73000000     5.42000000
   H     98.41000000    56.48000000     3.90000000
   H     95.99000000    55.32000000     3.73000000
   H     96.41000000    54.62000000     5.28000000
   H     98.12000000    54.22000000     2.84000000
   H     96.85000000    53.01000000     3.47000000
   H     98.07000000    52.17000000     4.98000000
   H     98.75000000    53.64000000     5.57000000
   H    100.20000000    51.96000000     4.50000000
   H     99.59000000    52.40000000     3.05000000
   H    100.48000000    53.40000000     3.74000000
   N     97.96000000    59.62000000     5.16000000
   C     98.61000000    60.85000000     5.58000000
   C     97.76000000    62.12000000     5.66000000
   O     98.17000000    63.11000000     6.26000000
   C     99.78000000    61.22000000     4.67000000
   C     99.54000000    61.37000000     3.18000000
   O    100.54000000    61.34000000     2.42000000
   O     98.37000000    61.49000000     2.77000000
   H     97.30000000    59.61000000     4.40000000
   H     98.95000000    60.68000000     6.60000000
   H    100.52000000    60.43000000     4.77000000
   H    100.23000000    62.11000000     5.10000000
   N     96.50000000    61.98000000     5.25000000
   C     95.51000000    63.02000000     5.39000000
   C     95.68000000    64.27000000     4.54000000
   O     95.11000000    65.31000000     4.87000000
   H     96.17000000    61.09000000     4.89000000
   H     95.48000000    63.40000000     6.41000000
   H     94.54000000    62.55000000     5.21000000
   N     96.41000000    64.25000000     3.42000000
   C     96.70000000    65.35000000     2.52000000
   C     95.46000000    65.73000000     1.73000000
   O     95.53000000    66.58000000     0.84000000
   C     97.87000000    64.89000000     1.65000000
   C     97.65000000    63.93000000     0.50000000
   N     98.48000000    64.08000000    -0.54000000
   O     96.69000000    63.16000000     0.50000000
   H     96.62000000    63.28000000     3.21000000
   H     96.93000000    66.25000000     3.08000000
   H     98.60000000    64.44000000     2.33000000
   H     98.27000000    65.77000000     1.15000000
   H     99.30000000    64.68000000    -0.53000000
   H     98.29000000    63.43000000    -1.28000000
   N     94.33000000    65.06000000     1.96000000
   C     93.13000000    65.31000000     1.20000000
   C     92.95000000    64.56000000    -0.12000000
   O     92.07000000    64.95000000    -0.88000000
   H     94.30000000    64.26000000     2.58000000
   H     92.90000000    66.35000000     0.97000000
   H     92.32000000    65.11000000     1.90000000
   N     93.70000000    63.49000000    -0.36000000
   C     93.60000000    62.65000000    -1.54000000
   C     93.73000000    61.18000000    -1.21000000
   O     94.59000000    60.83000000    -0.40000000
   C     94.66000000    62.89000000    -2.61000000
   C     94.75000000    64.30000000    -3.13000000
   C     95.82000000    65.15000000    -2.82000000
   C     93.62000000    64.88000000    -3.72000000
   C     95.78000000    66.54000000    -3.01000000
   C     93.59000000    66.25000000    -4.00000000
   C     94.67000000    67.10000000    -3.67000000
   O     94.60000000    68.44000000    -3.92000000
   H     94.51000000    63.36000000     0.24000000
   H     92.64000000    62.86000000    -2.00000000
   H     94.48000000    62.20000000    -3.43000000
   H     95.62000000    62.50000000    -2.24000000
   H     96.64000000    64.70000000    -2.28000000
   H     92.81000000    64.21000000    -3.95000000
   H     96.69000000    67.08000000    -2.78000000
   H     92.73000000    66.65000000    -4.53000000
   H     93.72000000    68.65000000    -4.25000000
   N     92.95000000    60.32000000    -1.89000000
   C     93.23000000    58.91000000    -2.04000000
   C     93.90000000    58.67000000    -3.38000000
   O     93.57000000    59.21000000    -4.43000000
   C     92.02000000    58.03000000    -1.70000000
   C     91.29000000    58.29000000    -0.39000000
   C     92.31000000    56.55000000    -1.95000000
   C     91.87000000    57.67000000     0.87000000
   H     92.33000000    60.65000000    -2.61000000
   H     93.95000000    58.66000000    -1.26000000
   H     91.33000000    58.28000000    -2.51000000
   H     90.25000000    57.95000000    -0.45000000
   H     91.25000000    59.36000000    -0.22000000
   H     91.51000000    55.95000000    -1.51000000
   H     92.21000000    56.37000000    -3.02000000
   H     93.33000000    56.32000000    -1.63000000
   H     92.92000000    57.97000000     0.95000000
   H     91.36000000    58.02000000     1.77000000
   H     91.89000000    56.58000000     0.94000000
   N     94.97000000    57.87000000    -3.42000000
   C     95.67000000    57.32000000    -4.56000000
   C     95.56000000    55.81000000    -4.68000000
   O     95.09000000    55.18000000    -3.73000000
   C     97.09000000    57.86000000    -4.44000000
   O     97.68000000    57.68000000    -3.17000000
   H     95.34000000    57.55000000    -2.53000000
   H     95.32000000    57.73000000    -5.51000000
   H     97.22000000    58.89000000    -4.76000000
   H     97.64000000    57.33000000    -5.22000000
   H     98.64000000    57.72000000    -3.19000000
   N     95.83000000    55.14000000    -5.80000000
   C     95.79000000    53.70000000    -5.89000000
   C     96.74000000    52.96000000    -4.96000000
   O     96.36000000    51.91000000    -4.43000000
   C     95.99000000    53.29000000    -7.35000000
   H     96.10000000    55.66000000    -6.63000000
   H     94.80000000    53.31000000    -5.64000000
   H     96.01000000    52.20000000    -7.41000000
   H     95.17000000    53.61000000    -7.99000000
   H     96.96000000    53.69000000    -7.64000000
   N     97.86000000    53.59000000    -4.59000000
   C     98.68000000    53.07000000    -3.51000000
   C     98.01000000    53.00000000    -2.15000000
   O     98.32000000    52.13000000    -1.34000000
   C     99.98000000    53.87000000    -3.50000000
   H     98.18000000    54.43000000    -5.04000000
   H     99.05000000    52.08000000    -3.79000000
   H     99.71000000    54.90000000    -3.30000000
   H    100.63000000    53.59000000    -2.66000000
   H    100.51000000    53.75000000    -4.44000000
   N     97.11000000    53.94000000    -1.85000000
   C     96.38000000    53.88000000    -0.60000000
   C     95.18000000    52.94000000    -0.71000000
   O     94.96000000    52.16000000     0.21000000
   C     96.13000000    55.29000000    -0.09000000
   C     97.34000000    56.22000000     0.03000000
   C     96.88000000    57.60000000     0.48000000
   O     97.79000000    58.26000000     1.02000000
   O     95.78000000    58.14000000     0.23000000
   H     96.80000000    54.54000000    -2.60000000
   H     97.04000000    53.48000000     0.16000000
   H     95.64000000    55.27000000     0.88000000
   H     95.42000000    55.70000000    -0.79000000
   H     97.91000000    56.22000000    -0.90000000
   H     98.02000000    55.67000000     0.69000000
   N     94.47000000    53.01000000    -1.84000000
   C     93.11000000    52.52000000    -1.95000000
   H     92.46700000    53.31600000    -2.32400000
   H     93.08200000    51.67700000    -2.64000000
   H     92.75800000    52.20000000    -0.96900000
   H     94.80000000    53.69000000    -2.50000000
  Ca     96.88000000    60.57000000     0.76000000
   O     96.95000000    60.08000000    -1.83200000
   H     97.29000000    60.79000000    -2.38200000
   H     97.05000000    59.29000000    -2.36200000

Ca 1.70



