%chk=holoCaM_loop3_82.0.chk
%nprocshared=48
%mem=10GB
%nosave
#b3lyp/svp scf=(tight,noincore) Test 
#IOP(5/87=12) Density=Current Pop=(MK,readradii) iop(6/33=2) iop(6/42=6)

holoCaM_loop3_82.0 

   0   1
   C     37.52000000    50.68000000    43.78000000
   C     37.77000000    49.89000000    45.05000000
   O     36.82000000    49.27000000    45.52000000
   H     36.74300000    51.42300000    43.96200000
   H     38.43900000    51.18300000    43.47700000
   H     37.19700000    50.00400000    42.98800000
   N     39.00000000    49.89000000    45.57000000
   C     39.28000000    49.45000000    46.92000000
   C     38.71000000    50.42000000    47.95000000
   O     39.10000000    51.58000000    47.91000000
   C     40.79000000    49.30000000    47.05000000
   C     41.32000000    48.77000000    48.38000000
   O     40.62000000    48.67000000    49.41000000
   O     42.57000000    48.65000000    48.37000000
   H     39.74000000    50.37000000    45.08000000
   H     38.90000000    48.46000000    47.18000000
   H     41.38000000    50.18000000    46.77000000
   H     41.09000000    48.59000000    46.28000000
   N     37.77000000    50.00000000    48.80000000
   C     36.91000000    50.92000000    49.53000000
   C     37.60000000    51.74000000    50.60000000
   O     37.38000000    52.95000000    50.71000000
   C     35.69000000    50.18000000    50.06000000
   C     34.64000000    51.21000000    50.48000000
   C     33.26000000    50.60000000    50.71000000
   C     33.12000000    49.79000000    52.00000000
   N     31.68000000    49.62000000    52.24000000
   H     37.37000000    49.07000000    48.74000000
   H     36.54000000    51.59000000    48.76000000
   H     35.86000000    49.53000000    50.92000000
   H     35.26000000    49.56000000    49.28000000
   H     34.52000000    52.01000000    49.76000000
   H     34.98000000    51.59000000    51.44000000
   H     33.06000000    50.04000000    49.79000000
   H     32.53000000    51.40000000    50.76000000
   H     33.64000000    50.16000000    52.89000000
   H     33.49000000    48.78000000    51.83000000
   H     31.55000000    49.03000000    53.05000000
   H     31.31000000    50.55000000    52.35000000
   H     31.30000000    49.17000000    51.42000000
   N     38.41000000    51.13000000    51.47000000
   C     39.35000000    51.77000000    52.37000000
   C     40.67000000    52.18000000    51.73000000
   O     41.29000000    53.14000000    52.18000000
   C     39.55000000    50.96000000    53.64000000
   C     40.06000000    49.53000000    53.48000000
   O     40.16000000    49.06000000    52.33000000
   O     40.27000000    48.84000000    54.50000000
   H     38.53000000    50.17000000    51.20000000
   H     38.93000000    52.74000000    52.63000000
   H     38.57000000    50.91000000    54.11000000
   H     40.09000000    51.52000000    54.41000000
   N     41.12000000    51.58000000    50.62000000
   C     42.39000000    51.86000000    49.99000000
   C     43.45000000    50.82000000    50.32000000
   O     44.58000000    51.04000000    49.89000000
   H     40.75000000    50.65000000    50.46000000
   H     42.75000000    52.85000000    50.29000000
   H     42.15000000    51.83000000    48.92000000
   N     43.25000000    49.76000000    51.10000000
   C     44.28000000    49.02000000    51.80000000
   C     45.15000000    48.11000000    50.94000000
   O     46.12000000    47.50000000    51.38000000
   C     43.72000000    48.36000000    53.05000000
   C     43.09000000    47.01000000    52.72000000
   N     43.22000000    46.06000000    53.65000000
   O     42.40000000    46.82000000    51.72000000
   H     42.31000000    49.54000000    51.40000000
   H     45.00000000    49.81000000    52.02000000
   H     42.93000000    48.98000000    53.48000000
   H     44.53000000    48.26000000    53.77000000
   H     43.75000000    46.28000000    54.48000000
   H     42.79000000    45.15000000    53.63000000
   N     44.90000000    48.01000000    49.63000000
   C     45.63000000    47.20000000    48.68000000
   C     44.93000000    45.89000000    48.36000000
   O     45.58000000    44.97000000    47.87000000
   H     44.07000000    48.49000000    49.31000000
   H     46.56000000    46.83000000    49.13000000
   H     45.82000000    47.81000000    47.79000000
   N     43.68000000    45.75000000    48.82000000
   C     42.97000000    44.50000000    48.63000000
   C     41.48000000    44.80000000    48.46000000
   O     40.86000000    45.60000000    49.16000000
   C     43.20000000    43.70000000    49.91000000
   C     44.66000000    43.42000000    50.18000000
   C     45.33000000    44.30000000    51.04000000
   C     45.22000000    42.32000000    49.53000000
   C     46.71000000    44.10000000    51.20000000
   C     46.58000000    42.12000000    49.81000000
   C     47.35000000    43.01000000    50.58000000
   O     48.66000000    42.69000000    50.80000000
   H     43.21000000    46.55000000    49.21000000
   H     43.34000000    43.90000000    47.81000000
   H     42.69000000    42.75000000    49.77000000
   H     42.82000000    44.22000000    50.79000000
   H     44.83000000    45.12000000    51.52000000
   H     44.60000000    41.70000000    48.89000000
   H     47.32000000    44.77000000    51.80000000
   H     47.04000000    41.29000000    49.28000000
   H     48.88000000    41.81000000    50.48000000
   N     40.90000000    44.08000000    47.50000000
   C     39.48000000    44.04000000    47.19000000
   C     38.77000000    42.81000000    47.74000000
   O     39.35000000    41.73000000    47.69000000
   C     39.32000000    44.32000000    45.70000000
   C     39.57000000    45.78000000    45.34000000
   C     37.94000000    43.85000000    45.22000000
   C     38.88000000    46.47000000    44.17000000
   H     41.50000000    43.41000000    47.04000000
   H     39.09000000    44.84000000    47.81000000
   H     40.00000000    43.76000000    45.06000000
   H     40.65000000    45.95000000    45.36000000
   H     39.23000000    46.36000000    46.19000000
   H     37.87000000    42.77000000    45.24000000
   H     37.18000000    44.29000000    45.86000000
   H     37.74000000    44.19000000    44.20000000
   H     37.79000000    46.46000000    44.18000000
   H     39.19000000    47.52000000    44.16000000
   H     39.36000000    46.08000000    43.27000000
   N     37.62000000    43.06000000    48.36000000
   C     36.57000000    42.17000000    48.84000000
   C     35.40000000    42.05000000    47.88000000
   O     35.05000000    42.94000000    47.11000000
   C     36.20000000    42.43000000    50.30000000
   O     35.01000000    43.15000000    50.57000000
   H     37.41000000    44.04000000    48.48000000
   H     36.98000000    41.16000000    48.87000000
   H     37.08000000    42.89000000    50.73000000
   H     36.07000000    41.49000000    50.83000000
   H     35.08000000    43.57000000    51.43000000
   N     34.63000000    40.97000000    48.05000000
   C     33.37000000    40.81000000    47.36000000
   C     32.24000000    41.72000000    47.81000000
   O     31.31000000    41.96000000    47.05000000
   C     32.93000000    39.36000000    47.58000000
   H     34.86000000    40.29000000    48.77000000
   H     33.43000000    40.84000000    46.27000000
   H     33.62000000    38.71000000    47.03000000
   H     32.98000000    39.08000000    48.63000000
   H     31.89000000    39.18000000    47.30000000
   N     32.35000000    42.38000000    48.97000000
   C     31.45000000    43.42000000    49.42000000
   C     31.79000000    44.81000000    48.88000000
   O     30.97000000    45.55000000    48.35000000
   C     31.39000000    43.40000000    50.94000000
   H     33.16000000    42.24000000    49.56000000
   H     30.44000000    43.22000000    49.06000000
   H     31.13000000    42.46000000    51.43000000
   H     32.32000000    43.89000000    51.25000000
   H     30.58000000    44.06000000    51.24000000
   N     33.10000000    45.03000000    48.75000000
   C     33.63000000    46.18000000    48.02000000
   C     33.31000000    46.04000000    46.54000000
   O     32.82000000    47.01000000    45.97000000
   C     35.14000000    46.29000000    48.19000000
   C     35.44000000    46.58000000    49.66000000
   C     36.90000000    46.59000000    50.07000000
   O     37.77000000    46.30000000    49.22000000
   O     37.23000000    46.92000000    51.23000000
   H     33.74000000    44.40000000    49.20000000
   H     33.15000000    47.12000000    48.29000000
   H     35.47000000    47.10000000    47.54000000
   H     35.63000000    45.40000000    47.81000000
   H     35.00000000    45.79000000    50.27000000
   H     34.88000000    47.46000000    49.98000000
   N     33.45000000    44.85000000    45.97000000
   C     33.09000000    44.62000000    44.58000000
   H     32.25400000    45.26600000    44.31000000
   H     33.94400000    44.84600000    43.94100000
   H     32.80100000    43.57800000    44.44700000
   H     33.94000000    44.07000000    46.41000000
  Ca     39.81000000    46.96000000    51.04000000
   O     39.85000000    44.53000000    51.93000000
   H     39.59000000    43.61000000    51.83000000
   H     39.81000000    44.70000000    52.87000000

Ca 1.70



