%chk=holoCaM_loop3_81.0.chk
%nprocshared=48
%mem=10GB
%nosave
#b3lyp/svp scf=(tight,noincore) Test 
#IOP(5/87=12) Density=Current Pop=(MK,readradii) iop(6/33=2) iop(6/42=6)

holoCaM_loop3_81.0 

   0   1
   C     40.15000000    47.08000000    31.18000000
   C     41.18000000    46.32000000    32.01000000
   O     41.34000000    46.60000000    33.19000000
   H     39.27900000    47.30200000    31.79700000
   H     40.58800000    48.01200000    30.82100000
   H     39.84600000    46.47000000    30.33000000
   N     41.94000000    45.42000000    31.38000000
   C     43.11000000    44.77000000    31.92000000
   C     44.46000000    45.48000000    31.86000000
   O     45.47000000    45.05000000    31.32000000
   C     43.29000000    43.39000000    31.30000000
   C     44.23000000    42.49000000    32.10000000
   O     44.48000000    42.74000000    33.30000000
   O     44.78000000    41.54000000    31.50000000
   H     41.75000000    45.19000000    30.41000000
   H     42.96000000    44.55000000    32.98000000
   H     43.61000000    43.34000000    30.25000000
   H     42.34000000    42.88000000    31.45000000
   N     44.47000000    46.62000000    32.55000000
   C     45.60000000    47.44000000    32.92000000
   C     46.87000000    46.79000000    33.44000000
   O     47.99000000    47.06000000    33.01000000
   C     45.23000000    48.51000000    33.94000000
   C     43.93000000    49.28000000    33.72000000
   C     43.68000000    50.25000000    34.87000000
   C     43.65000000    49.74000000    36.30000000
   N     42.78000000    48.56000000    36.41000000
   H     43.62000000    46.83000000    33.06000000
   H     45.92000000    47.90000000    31.98000000
   H     46.05000000    49.23000000    33.94000000
   H     45.21000000    47.99000000    34.90000000
   H     43.09000000    48.58000000    33.64000000
   H     44.01000000    49.87000000    32.81000000
   H     42.68000000    50.66000000    34.72000000
   H     44.46000000    51.01000000    34.80000000
   H     43.36000000    50.61000000    36.89000000
   H     44.69000000    49.55000000    36.56000000
   H     42.96000000    47.74000000    35.85000000
   H     42.63000000    48.35000000    37.39000000
   H     41.83000000    48.82000000    36.22000000
   N     46.70000000    45.84000000    34.36000000
   C     47.76000000    45.04000000    34.93000000
   C     48.22000000    43.93000000    33.99000000
   O     49.23000000    43.31000000    34.31000000
   C     47.42000000    44.38000000    36.26000000
   C     46.13000000    43.59000000    36.12000000
   O     45.03000000    44.17000000    36.18000000
   O     46.14000000    42.34000000    36.08000000
   H     45.76000000    45.57000000    34.62000000
   H     48.71000000    45.55000000    35.07000000
   H     47.34000000    45.09000000    37.09000000
   H     48.17000000    43.66000000    36.59000000
   N     47.64000000    43.64000000    32.82000000
   C     48.15000000    42.73000000    31.83000000
   C     48.24000000    41.23000000    32.10000000
   O     48.82000000    40.50000000    31.31000000
   H     46.79000000    44.16000000    32.61000000
   H     49.14000000    43.09000000    31.56000000
   H     47.50000000    42.74000000    30.95000000
   N     47.69000000    40.73000000    33.21000000
   C     47.75000000    39.33000000    33.60000000
   C     46.90000000    38.36000000    32.80000000
   O     46.97000000    37.15000000    33.03000000
   C     47.47000000    39.28000000    35.10000000
   C     46.00000000    39.04000000    35.41000000
   N     45.64000000    38.10000000    36.28000000
   O     45.08000000    39.68000000    34.91000000
   H     47.06000000    41.31000000    33.74000000
   H     48.79000000    39.03000000    33.53000000
   H     47.75000000    40.26000000    35.49000000
   H     48.09000000    38.52000000    35.58000000
   H     46.27000000    37.46000000    36.75000000
   H     44.67000000    37.91000000    36.50000000
   N     46.15000000    38.87000000    31.83000000
   C     45.41000000    38.09000000    30.86000000
   C     43.92000000    37.88000000    31.12000000
   O     43.28000000    37.12000000    30.40000000
   H     46.05000000    39.87000000    31.72000000
   H     45.93000000    37.13000000    30.90000000
   H     45.60000000    38.64000000    29.95000000
   N     43.39000000    38.62000000    32.09000000
   C     42.02000000    38.50000000    32.55000000
   C     41.39000000    39.79000000    33.08000000
   O     42.10000000    40.70000000    33.51000000
   C     42.08000000    37.44000000    33.65000000
   C     42.71000000    36.10000000    33.34000000
   C     44.01000000    35.83000000    33.78000000
   C     41.88000000    35.11000000    32.79000000
   C     44.38000000    34.49000000    33.65000000
   C     42.34000000    33.83000000    32.47000000
   C     43.64000000    33.53000000    32.92000000
   O     44.22000000    32.32000000    32.69000000
   H     43.93000000    39.34000000    32.54000000
   H     41.43000000    38.11000000    31.72000000
   H     41.05000000    37.41000000    33.98000000
   H     42.68000000    37.95000000    34.40000000
   H     44.54000000    36.61000000    34.31000000
   H     40.83000000    35.35000000    32.67000000
   H     45.41000000    34.30000000    33.91000000
   H     41.76000000    33.12000000    31.91000000
   H     43.61000000    31.80000000    32.17000000
   N     40.09000000    39.97000000    32.87000000
   C     39.23000000    41.07000000    33.26000000
   C     38.32000000    40.57000000    34.37000000
   O     37.62000000    39.57000000    34.23000000
   C     38.48000000    41.70000000    32.09000000
   C     39.49000000    42.27000000    31.09000000
   C     37.48000000    42.76000000    32.55000000
   C     38.88000000    42.74000000    29.77000000
   H     39.63000000    39.26000000    32.31000000
   H     39.89000000    41.84000000    33.66000000
   H     37.83000000    40.92000000    31.70000000
   H     40.10000000    41.41000000    30.85000000
   H     40.04000000    42.99000000    31.70000000
   H     37.85000000    43.43000000    33.32000000
   H     37.15000000    43.42000000    31.75000000
   H     36.67000000    42.11000000    32.89000000
   H     38.48000000    41.89000000    29.21000000
   H     38.14000000    43.51000000    29.99000000
   H     39.64000000    43.17000000    29.12000000
   N     38.28000000    41.29000000    35.49000000
   C     37.42000000    41.13000000    36.65000000
   C     36.30000000    42.16000000    36.65000000
   O     36.39000000    43.26000000    36.12000000
   C     38.20000000    41.37000000    37.94000000
   O     38.65000000    42.68000000    38.17000000
   H     38.96000000    42.04000000    35.49000000
   H     36.97000000    40.14000000    36.71000000
   H     39.05000000    40.69000000    37.84000000
   H     37.54000000    41.01000000    38.73000000
   H     39.39000000    42.54000000    38.77000000
   N     35.29000000    41.94000000    37.50000000
   C     34.23000000    42.90000000    37.74000000
   C     34.72000000    44.24000000    38.25000000
   O     34.22000000    45.32000000    37.94000000
   C     33.24000000    42.28000000    38.73000000
   H     35.35000000    41.21000000    38.20000000
   H     33.66000000    43.09000000    36.83000000
   H     32.96000000    41.31000000    38.31000000
   H     33.55000000    42.14000000    39.76000000
   H     32.34000000    42.90000000    38.78000000
   N     35.68000000    44.20000000    39.18000000
   C     36.32000000    45.41000000    39.66000000
   C     36.98000000    46.23000000    38.57000000
   O     36.80000000    47.45000000    38.52000000
   C     37.36000000    44.97000000    40.69000000
   H     36.06000000    43.29000000    39.39000000
   H     35.58000000    46.05000000    40.12000000
   H     38.16000000    44.35000000    40.27000000
   H     37.71000000    45.85000000    41.22000000
   H     36.82000000    44.43000000    41.46000000
   N     37.75000000    45.57000000    37.69000000
   C     38.49000000    46.20000000    36.62000000
   C     37.53000000    46.77000000    35.58000000
   O     37.86000000    47.81000000    35.02000000
   C     39.30000000    45.07000000    35.98000000
   C     40.59000000    44.97000000    36.80000000
   C     41.53000000    43.88000000    36.30000000
   O     42.31000000    43.39000000    37.14000000
   O     41.77000000    43.58000000    35.11000000
   H     37.86000000    44.62000000    38.01000000
   H     39.21000000    46.94000000    36.98000000
   H     39.58000000    45.34000000    34.96000000
   H     38.71000000    44.16000000    36.03000000
   H     40.35000000    44.70000000    37.83000000
   H     41.01000000    45.97000000    36.78000000
   N     36.42000000    46.10000000    35.25000000
   C     35.30000000    46.51000000    34.42000000
   H     34.48600000    46.86000000    35.05600000
   H     35.61400000    47.31600000    33.75700000
   H     34.95800000    45.66300000    33.82600000
   H     36.23000000    45.19000000    35.63000000
  Ca     43.71000000    41.89000000    35.52000000
   O     44.12000000    41.08000000    38.01000000
   H     44.47000000    41.79000000    38.56000000
   H     44.41000000    40.28000000    38.44000000

Ca 1.70



