%chk=holoCaM_loop3_77.0.chk
%nprocshared=48
%mem=10GB
%nosave
#b3lyp/svp scf=(tight,noincore) Test 
#IOP(5/87=12) Density=Current Pop=(MK,readradii) iop(6/33=2) iop(6/42=6)

holoCaM_loop3_77.0 

   0   1
   C     85.04000000    32.93000000    26.38000000
   C     86.54000000    32.81000000    26.57000000
   O     87.07000000    31.77000000    26.96000000
   H     84.58200000    33.26400000    27.31100000
   H     84.83000000    33.65300000    25.59200000
   H     84.63000000    31.95900000    26.10200000
   N     87.30000000    33.88000000    26.30000000
   C     88.67000000    34.00000000    26.77000000
   C     88.67000000    34.44000000    28.22000000
   O     88.33000000    35.58000000    28.53000000
   C     89.38000000    34.93000000    25.79000000
   C     90.88000000    35.05000000    26.05000000
   O     91.62000000    35.82000000    25.41000000
   O     91.39000000    34.47000000    27.03000000
   H     86.80000000    34.71000000    26.03000000
   H     89.16000000    33.03000000    26.77000000
   H     88.84000000    35.88000000    25.86000000
   H     89.27000000    34.68000000    24.74000000
   N     89.11000000    33.56000000    29.12000000
   C     88.85000000    33.56000000    30.55000000
   C     89.86000000    34.41000000    31.29000000
   O     89.75000000    34.48000000    32.52000000
   C     88.68000000    32.17000000    31.16000000
   C     87.50000000    31.41000000    30.55000000
   C     86.13000000    32.02000000    30.82000000
   C     85.12000000    31.55000000    29.77000000
   N     83.77000000    32.04000000    30.08000000
   H     89.63000000    32.78000000    28.76000000
   H     87.93000000    34.06000000    30.85000000
   H     88.44000000    32.28000000    32.21000000
   H     89.57000000    31.55000000    31.04000000
   H     87.47000000    30.38000000    30.93000000
   H     87.69000000    31.43000000    29.48000000
   H     86.20000000    33.11000000    30.88000000
   H     85.89000000    31.60000000    31.80000000
   H     85.09000000    30.47000000    29.87000000
   H     85.50000000    31.90000000    28.81000000
   H     83.53000000    31.94000000    31.06000000
   H     83.69000000    33.05000000    30.05000000
   H     83.10000000    31.59000000    29.48000000
   N     90.85000000    35.05000000    30.66000000
   C     91.65000000    36.14000000    31.17000000
   C     91.67000000    37.37000000    30.27000000
   O     92.18000000    38.43000000    30.64000000
   C     93.08000000    35.65000000    31.40000000
   C     93.79000000    34.97000000    30.25000000
   O     93.57000000    35.38000000    29.09000000
   O     94.46000000    33.93000000    30.41000000
   H     90.93000000    34.78000000    29.69000000
   H     91.31000000    36.48000000    32.15000000
   H     93.01000000    34.94000000    32.23000000
   H     93.66000000    36.49000000    31.79000000
   N     91.14000000    37.22000000    29.06000000
   C     91.04000000    38.25000000    28.05000000
   C     92.38000000    38.54000000    27.40000000
   O     92.55000000    39.63000000    26.84000000
   H     90.63000000    36.41000000    28.73000000
   H     90.64000000    39.17000000    28.49000000
   H     90.32000000    37.97000000    27.29000000
   N     93.40000000    37.67000000    27.37000000
   C     94.69000000    38.04000000    26.83000000
   C     94.64000000    38.15000000    25.32000000
   O     95.52000000    38.86000000    24.83000000
   C     95.80000000    37.09000000    27.27000000
   C     95.90000000    35.75000000    26.56000000
   N     97.09000000    35.49000000    26.00000000
   O     94.95000000    34.99000000    26.41000000
   H     93.26000000    36.80000000    27.86000000
   H     94.95000000    39.02000000    27.23000000
   H     95.62000000    36.80000000    28.31000000
   H     96.76000000    37.59000000    27.15000000
   H     97.72000000    36.27000000    25.88000000
   H     97.30000000    34.54000000    25.74000000
   N     93.69000000    37.55000000    24.60000000
   C     93.49000000    37.57000000    23.16000000
   C     93.41000000    36.16000000    22.60000000
   O     93.29000000    36.01000000    21.38000000
   H     93.16000000    36.85000000    25.10000000
   H     94.39000000    38.03000000    22.74000000
   H     92.50000000    37.99000000    22.98000000
   N     93.41000000    35.07000000    23.36000000
   C     93.52000000    33.71000000    22.85000000
   C     92.85000000    32.74000000    23.82000000
   O     93.01000000    32.84000000    25.03000000
   C     95.00000000    33.40000000    22.66000000
   C     95.83000000    34.40000000    21.89000000
   C     96.54000000    35.36000000    22.62000000
   C     95.94000000    34.31000000    20.49000000
   C     97.40000000    36.25000000    21.98000000
   C     96.74000000    35.23000000    19.80000000
   C     97.46000000    36.15000000    20.58000000
   O     98.42000000    36.91000000    19.98000000
   H     93.37000000    35.25000000    24.35000000
   H     93.07000000    33.65000000    21.86000000
   H     95.10000000    32.45000000    22.12000000
   H     95.41000000    33.33000000    23.67000000
   H     96.59000000    35.34000000    23.70000000
   H     95.22000000    33.65000000    20.05000000
   H     98.03000000    36.89000000    22.58000000
   H     96.79000000    35.12000000    18.72000000
   H     98.44000000    36.73000000    19.04000000
   N     92.17000000    31.76000000    23.24000000
   C     91.39000000    30.71000000    23.87000000
   C     92.17000000    29.41000000    23.75000000
   O     92.53000000    29.01000000    22.65000000
   C     89.99000000    30.72000000    23.27000000
   C     89.15000000    31.91000000    23.70000000
   C     89.23000000    29.41000000    23.50000000
   C     87.73000000    31.98000000    23.14000000
   H     92.10000000    31.73000000    22.23000000
   H     91.25000000    30.87000000    24.94000000
   H     90.10000000    30.79000000    22.18000000
   H     89.70000000    32.72000000    23.23000000
   H     89.23000000    32.21000000    24.75000000
   H     89.77000000    28.67000000    22.91000000
   H     89.22000000    29.09000000    24.54000000
   H     88.27000000    29.44000000    22.98000000
   H     87.70000000    31.70000000    22.09000000
   H     87.09000000    31.29000000    23.67000000
   H     87.28000000    32.96000000    23.32000000
   N     92.36000000    28.73000000    24.89000000
   C     92.95000000    27.41000000    24.98000000
   C     91.97000000    26.27000000    25.24000000
   O     90.78000000    26.53000000    25.37000000
   C     93.83000000    27.43000000    26.23000000
   O     93.08000000    27.60000000    27.41000000
   H     92.01000000    29.12000000    25.75000000
   H     93.49000000    27.16000000    24.07000000
   H     94.55000000    28.25000000    26.26000000
   H     94.42000000    26.51000000    26.26000000
   H     92.85000000    28.53000000    27.44000000
   N     92.38000000    25.00000000    25.27000000
   C     91.48000000    23.91000000    25.61000000
   C     90.75000000    24.07000000    26.94000000
   O     89.65000000    23.61000000    27.23000000
   C     92.20000000    22.56000000    25.66000000
   H     93.34000000    24.79000000    25.04000000
   H     90.76000000    23.81000000    24.80000000
   H     91.44000000    21.79000000    25.59000000
   H     92.74000000    22.49000000    24.72000000
   H     92.84000000    22.44000000    26.53000000
   N     91.51000000    24.65000000    27.87000000
   C     91.02000000    24.97000000    29.20000000
   C     89.93000000    26.03000000    29.26000000
   O     89.24000000    26.23000000    30.26000000
   C     92.17000000    25.27000000    30.15000000
   H     92.48000000    24.77000000    27.63000000
   H     90.59000000    24.06000000    29.62000000
   H     92.73000000    26.08000000    29.69000000
   H     91.79000000    25.64000000    31.11000000
   H     92.84000000    24.43000000    30.34000000
   N     89.86000000    26.81000000    28.18000000
   C     88.92000000    27.90000000    28.01000000
   C     87.74000000    27.70000000    27.08000000
   O     86.65000000    28.21000000    27.36000000
   C     89.71000000    29.15000000    27.64000000
   C     90.61000000    29.70000000    28.73000000
   C     91.57000000    30.79000000    28.26000000
   O     91.60000000    31.92000000    28.79000000
   O     92.33000000    30.44000000    27.33000000
   H     90.52000000    26.58000000    27.45000000
   H     88.37000000    28.16000000    28.92000000
   H     89.05000000    29.98000000    27.36000000
   H     90.39000000    28.92000000    26.81000000
   H     91.21000000    28.87000000    29.11000000
   H     90.08000000    30.03000000    29.63000000
   N     87.91000000    26.72000000    26.19000000
   C     86.86000000    26.14000000    25.38000000
   H     86.01300000    26.82500000    25.33900000
   H     87.23400000    25.96400000    24.37100000
   H     86.54100000    25.19500000    25.82000000
   H     88.87000000    26.50000000    26.01000000
  Ca     93.58000000    33.08000000    27.64000000
   O     94.32000000    31.05000000    29.23000000
   H     95.07000000    31.00000000    29.82000000
   H     94.34000000    30.24000000    28.73000000

Ca 1.70



