%chk=holoCaM_loop3_33.0.chk
%nprocshared=48
%mem=10GB
%nosave
#b3lyp/svp scf=(tight,noincore) Test 
#IOP(5/87=12) Density=Current Pop=(MK,readradii) iop(6/33=2) iop(6/42=6)

holoCaM_loop3_33.0 

   0   1
   C     84.90000000    32.69000000    26.13000000
   C     86.35000000    32.78000000    26.58000000
   O     86.85000000    31.70000000    26.91000000
   H     84.31400000    33.45600000    26.63800000
   H     84.84300000    32.84500000    25.05300000
   H     84.50300000    31.70600000    26.37800000
   N     87.00000000    33.95000000    26.58000000
   C     88.35000000    34.17000000    27.05000000
   C     88.43000000    34.48000000    28.54000000
   O     87.97000000    35.48000000    29.09000000
   C     88.93000000    35.34000000    26.27000000
   C     90.37000000    35.71000000    26.59000000
   O     90.90000000    36.68000000    26.01000000
   O     90.96000000    35.01000000    27.44000000
   H     86.48000000    34.73000000    26.20000000
   H     88.83000000    33.22000000    26.83000000
   H     88.37000000    36.27000000    26.36000000
   H     88.94000000    34.99000000    25.23000000
   N     89.02000000    33.49000000    29.21000000
   C     88.98000000    33.40000000    30.66000000
   C     89.95000000    34.33000000    31.38000000
   O     89.88000000    34.44000000    32.60000000
   C     88.98000000    31.95000000    31.12000000
   C     87.87000000    31.06000000    30.57000000
   C     86.48000000    31.56000000    30.96000000
   C     85.89000000    32.47000000    29.89000000
   N     84.48000000    32.78000000    30.19000000
   H     89.37000000    32.73000000    28.64000000
   H     88.00000000    33.77000000    30.95000000
   H     88.86000000    31.96000000    32.20000000
   H     89.98000000    31.55000000    30.92000000
   H     88.07000000    30.10000000    31.05000000
   H     88.00000000    30.93000000    29.50000000
   H     86.50000000    31.98000000    31.97000000
   H     85.86000000    30.66000000    30.94000000
   H     85.90000000    31.86000000    28.99000000
   H     86.47000000    33.39000000    29.78000000
   H     84.12000000    33.51000000    29.60000000
   H     83.92000000    31.93000000    30.16000000
   H     84.37000000    33.16000000    31.12000000
   N     90.83000000    35.02000000    30.65000000
   C     91.90000000    35.81000000    31.22000000
   C     92.23000000    37.03000000    30.36000000
   O     93.12000000    37.82000000    30.69000000
   C     93.13000000    34.92000000    31.22000000
   C     93.34000000    34.19000000    29.91000000
   O     93.64000000    34.86000000    28.90000000
   O     93.08000000    32.97000000    29.74000000
   H     90.71000000    34.85000000    29.66000000
   H     91.67000000    36.21000000    32.21000000
   H     93.10000000    34.28000000    32.11000000
   H     94.03000000    35.48000000    31.50000000
   N     91.53000000    37.27000000    29.26000000
   C     91.56000000    38.46000000    28.43000000
   C     92.77000000    38.80000000    27.56000000
   O     92.89000000    39.96000000    27.16000000
   H     90.94000000    36.50000000    28.96000000
   H     91.43000000    39.24000000    29.17000000
   H     90.64000000    38.55000000    27.86000000
   N     93.60000000    37.83000000    27.18000000
   C     94.72000000    37.96000000    26.28000000
   C     94.41000000    37.94000000    24.79000000
   O     95.33000000    38.19000000    24.01000000
   C     95.74000000    36.86000000    26.54000000
   C     95.39000000    35.43000000    26.16000000
   N     96.48000000    34.71000000    25.87000000
   O     94.27000000    34.98000000    25.91000000
   H     93.31000000    36.90000000    27.44000000
   H     95.28000000    38.86000000    26.53000000
   H     95.87000000    36.84000000    27.63000000
   H     96.71000000    37.07000000    26.08000000
   H     97.41000000    35.09000000    25.91000000
   H     96.40000000    33.73000000    25.66000000
   N     93.15000000    37.72000000    24.40000000
   C     92.65000000    37.70000000    23.04000000
   C     92.88000000    36.42000000    22.24000000
   O     92.96000000    36.46000000    21.01000000
   H     92.53000000    37.28000000    25.07000000
   H     93.15000000    38.51000000    22.51000000
   H     91.58000000    37.87000000    22.92000000
   N     93.05000000    35.28000000    22.91000000
   C     93.05000000    33.92000000    22.41000000
   C     92.31000000    32.96000000    23.33000000
   O     92.25000000    33.14000000    24.55000000
   C     94.49000000    33.43000000    22.24000000
   C     95.46000000    34.38000000    21.60000000
   C     96.07000000    35.42000000    22.32000000
   C     95.70000000    34.40000000    20.22000000
   C     96.91000000    36.38000000    21.76000000
   C     96.54000000    35.32000000    19.58000000
   C     97.18000000    36.28000000    20.38000000
   O     97.85000000    37.28000000    19.73000000
   H     93.16000000    35.51000000    23.89000000
   H     92.65000000    33.84000000    21.40000000
   H     94.45000000    32.48000000    21.71000000
   H     94.92000000    33.12000000    23.19000000
   H     95.83000000    35.52000000    23.37000000
   H     95.19000000    33.61000000    19.69000000
   H     97.24000000    37.21000000    22.37000000
   H     96.67000000    35.27000000    18.51000000
   H     97.72000000    37.31000000    18.78000000
   N     91.95000000    31.79000000    22.81000000
   C     91.25000000    30.76000000    23.55000000
   C     91.98000000    29.42000000    23.48000000
   O     92.24000000    28.90000000    22.40000000
   C     89.85000000    30.59000000    22.97000000
   C     89.10000000    31.91000000    23.11000000
   C     89.05000000    29.51000000    23.70000000
   C     87.68000000    31.88000000    22.55000000
   H     92.05000000    31.73000000    21.81000000
   H     91.25000000    31.06000000    24.60000000
   H     89.81000000    30.33000000    21.91000000
   H     89.60000000    32.78000000    22.66000000
   H     89.12000000    32.34000000    24.11000000
   H     89.62000000    28.58000000    23.67000000
   H     89.02000000    29.73000000    24.77000000
   H     88.07000000    29.35000000    23.26000000
   H     87.64000000    31.56000000    21.50000000
   H     87.05000000    31.24000000    23.15000000
   H     87.23000000    32.87000000    22.64000000
   N     92.13000000    28.78000000    24.64000000
   C     92.67000000    27.45000000    24.84000000
   C     91.66000000    26.38000000    25.21000000
   O     90.60000000    26.70000000    25.75000000
   C     93.84000000    27.57000000    25.81000000
   O     93.48000000    28.13000000    27.06000000
   H     91.73000000    29.12000000    25.49000000
   H     93.05000000    27.08000000    23.88000000
   H     94.71000000    28.12000000    25.47000000
   H     94.36000000    26.63000000    26.01000000
   H     92.95000000    28.90000000    26.85000000
   N     92.03000000    25.12000000    24.96000000
   C     91.25000000    23.94000000    25.30000000
   C     90.56000000    23.93000000    26.65000000
   O     89.40000000    23.52000000    26.70000000
   C     92.06000000    22.65000000    25.19000000
   H     92.93000000    24.91000000    24.57000000
   H     90.45000000    23.82000000    24.56000000
   H     92.90000000    22.62000000    25.89000000
   H     91.43000000    21.80000000    25.46000000
   H     92.47000000    22.50000000    24.19000000
   N     91.11000000    24.50000000    27.73000000
   C     90.51000000    24.57000000    29.04000000
   C     89.55000000    25.73000000    29.29000000
   O     88.71000000    25.71000000    30.18000000
   C     91.67000000    24.56000000    30.03000000
   H     92.11000000    24.63000000    27.74000000
   H     89.87000000    23.70000000    29.18000000
   H     91.37000000    24.86000000    31.03000000
   H     92.05000000    23.54000000    30.01000000
   H     92.45000000    25.24000000    29.70000000
   N     89.55000000    26.74000000    28.41000000
   C     88.54000000    27.77000000    28.32000000
   C     87.32000000    27.32000000    27.54000000
   O     86.20000000    27.60000000    27.96000000
   C     89.28000000    28.98000000    27.75000000
   C     90.50000000    29.41000000    28.55000000
   C     91.12000000    30.63000000    27.88000000
   O     90.64000000    31.78000000    27.95000000
   O     92.15000000    30.50000000    27.18000000
   H     90.28000000    26.72000000    27.72000000
   H     88.18000000    28.00000000    29.33000000
   H     88.49000000    29.73000000    27.72000000
   H     89.57000000    28.80000000    26.71000000
   H     91.20000000    28.57000000    28.55000000
   H     90.33000000    29.64000000    29.60000000
   N     87.49000000    26.41000000    26.57000000
   C     86.46000000    25.94000000    25.66000000
   H     85.60800000    26.61900000    25.69400000
   H     86.85800000    25.90800000    24.64600000
   H     86.14000000    24.94100000    25.95700000
   H     88.45000000    26.17000000    26.39000000
  Ca     92.75000000    33.11000000    27.12000000
   O     94.74000000    31.76000000    26.07000000
   H     95.29000000    31.24000000    26.65000000
   H     94.89000000    31.39000000    25.20000000

Ca 1.70



