%chk=holoCaM_loop3_48.0.chk
%nprocshared=48
%mem=10GB
%nosave
#b3lyp/svp scf=(tight,noincore) Test 
#IOP(5/87=12) Density=Current Pop=(MK,readradii) iop(6/33=2) iop(6/42=6)

holoCaM_loop3_48.0 

   0   1
   C     49.39000000    40.13000000    23.51000000
   C     49.95000000    39.28000000    24.64000000
   O     49.49000000    39.46000000    25.77000000
   H     48.49200000    40.64300000    23.85300000
   H     50.13400000    40.86600000    23.20500000
   H     49.14200000    39.49100000    22.66300000
   N     50.85000000    38.35000000    24.32000000
   C     51.81000000    37.89000000    25.31000000
   C     53.06000000    38.73000000    25.15000000
   O     53.37000000    39.11000000    24.02000000
   C     52.16000000    36.40000000    25.22000000
   C     53.42000000    36.03000000    25.99000000
   O     53.27000000    36.12000000    27.23000000
   O     54.47000000    35.70000000    25.41000000
   H     50.96000000    38.22000000    23.33000000
   H     51.43000000    38.11000000    26.30000000
   H     52.40000000    36.13000000    24.19000000
   H     51.34000000    35.86000000    25.70000000
   N     53.81000000    38.99000000    26.23000000
   C     54.85000000    39.99000000    26.38000000
   C     56.21000000    39.43000000    26.79000000
   O     57.11000000    40.24000000    26.99000000
   C     54.48000000    41.07000000    27.39000000
   C     53.36000000    41.99000000    26.89000000
   C     53.28000000    43.18000000    27.83000000
   C     52.34000000    44.26000000    27.32000000
   N     52.13000000    45.39000000    28.24000000
   H     53.46000000    38.47000000    27.02000000
   H     54.96000000    40.52000000    25.44000000
   H     55.30000000    41.78000000    27.48000000
   H     54.16000000    40.66000000    28.34000000
   H     52.44000000    41.41000000    26.97000000
   H     53.65000000    42.40000000    25.92000000
   H     54.27000000    43.57000000    28.07000000
   H     52.84000000    42.74000000    28.73000000
   H     51.38000000    43.81000000    27.06000000
   H     52.85000000    44.53000000    26.40000000
   H     51.61000000    46.08000000    27.71000000
   H     51.63000000    45.05000000    29.05000000
   H     53.02000000    45.68000000    28.61000000
   N     56.40000000    38.11000000    26.86000000
   C     57.66000000    37.53000000    27.26000000
   C     58.14000000    36.44000000    26.31000000
   O     59.31000000    36.49000000    25.93000000
   C     57.69000000    37.05000000    28.71000000
   C     56.42000000    36.30000000    29.09000000
   O     56.48000000    35.05000000    28.98000000
   O     55.44000000    36.98000000    29.45000000
   H     55.65000000    37.45000000    26.73000000
   H     58.44000000    38.30000000    27.32000000
   H     57.58000000    37.97000000    29.30000000
   H     58.60000000    36.49000000    28.91000000
   N     57.39000000    35.37000000    26.04000000
   C     57.77000000    34.28000000    25.16000000
   C     57.07000000    32.97000000    25.47000000
   O     56.84000000    32.17000000    24.56000000
   H     56.41000000    35.45000000    26.25000000
   H     58.83000000    34.07000000    25.28000000
   H     57.66000000    34.64000000    24.13000000
   N     56.55000000    32.84000000    26.69000000
   C     55.69000000    31.72000000    27.05000000
   C     54.43000000    31.52000000    26.24000000
   O     53.95000000    30.38000000    26.24000000
   C     55.56000000    31.78000000    28.57000000
   C     54.21000000    32.25000000    29.12000000
   N     53.55000000    31.57000000    30.05000000
   O     53.86000000    33.41000000    28.89000000
   H     56.80000000    33.50000000    27.41000000
   H     56.29000000    30.85000000    26.78000000
   H     56.39000000    32.34000000    29.00000000
   H     55.55000000    30.74000000    28.90000000
   H     53.97000000    30.74000000    30.45000000
   H     52.78000000    32.06000000    30.49000000
   N     53.97000000    32.53000000    25.50000000
   C     52.90000000    32.49000000    24.52000000
   C     51.47000000    32.48000000    25.06000000
   O     50.55000000    32.21000000    24.29000000
   H     54.59000000    33.32000000    25.42000000
   H     53.02000000    31.63000000    23.86000000
   H     52.94000000    33.38000000    23.90000000
   N     51.30000000    32.74000000    26.36000000
   C     50.11000000    32.55000000    27.15000000
   C     49.81000000    33.80000000    27.96000000
   O     50.68000000    34.34000000    28.64000000
   C     50.21000000    31.37000000    28.12000000
   C     50.76000000    30.14000000    27.44000000
   C     51.59000000    29.29000000    28.18000000
   C     50.34000000    29.73000000    26.17000000
   C     51.95000000    28.02000000    27.71000000
   C     50.84000000    28.55000000    25.59000000
   C     51.51000000    27.64000000    26.42000000
   O     51.56000000    26.37000000    25.94000000
   H     52.11000000    32.95000000    26.93000000
   H     49.25000000    32.32000000    26.52000000
   H     49.26000000    31.14000000    28.61000000
   H     50.92000000    31.60000000    28.91000000
   H     51.87000000    29.66000000    29.16000000
   H     49.71000000    30.38000000    25.59000000
   H     52.55000000    27.38000000    28.32000000
   H     50.71000000    28.19000000    24.58000000
   H     51.09000000    26.14000000    25.13000000
   N     48.61000000    34.33000000    27.71000000
   C     48.20000000    35.66000000    28.11000000
   C     47.60000000    35.61000000    29.51000000
   O     46.74000000    34.81000000    29.86000000
   C     47.21000000    36.23000000    27.10000000
   C     47.83000000    36.20000000    25.71000000
   C     46.93000000    37.65000000    27.57000000
   C     46.85000000    36.46000000    24.56000000
   H     47.98000000    33.85000000    27.08000000
   H     49.04000000    36.35000000    28.15000000
   H     46.26000000    35.70000000    27.23000000
   H     48.19000000    35.19000000    25.55000000
   H     48.64000000    36.93000000    25.70000000
   H     46.45000000    38.25000000    26.79000000
   H     46.37000000    37.59000000    28.50000000
   H     47.86000000    38.17000000    27.79000000
   H     46.64000000    37.53000000    24.61000000
   H     47.28000000    36.09000000    23.63000000
   H     45.94000000    35.99000000    24.91000000
   N     48.14000000    36.46000000    30.38000000
   C     47.90000000    36.49000000    31.81000000
   C     47.16000000    37.73000000    32.30000000
   O     46.80000000    38.55000000    31.46000000
   C     49.16000000    36.35000000    32.66000000
   O     50.10000000    37.39000000    32.47000000
   H     48.92000000    36.98000000    29.99000000
   H     47.29000000    35.63000000    32.06000000
   H     49.64000000    35.41000000    32.39000000
   H     48.92000000    36.28000000    33.72000000
   H     50.37000000    37.41000000    31.55000000
   N     46.81000000    37.93000000    33.58000000
   C     45.96000000    39.04000000    33.95000000
   C     46.57000000    40.43000000    33.79000000
   O     45.89000000    41.28000000    33.23000000
   C     45.39000000    38.77000000    35.34000000
   H     46.90000000    37.14000000    34.20000000
   H     45.12000000    38.98000000    33.26000000
   H     45.12000000    37.72000000    35.34000000
   H     46.11000000    38.82000000    36.16000000
   H     44.49000000    39.29000000    35.67000000
   N     47.84000000    40.60000000    34.16000000
   C     48.64000000    41.78000000    33.92000000
   C     49.00000000    42.07000000    32.47000000
   O     49.26000000    43.22000000    32.16000000
   C     49.95000000    41.60000000    34.68000000
   H     48.26000000    39.80000000    34.61000000
   H     48.07000000    42.62000000    34.30000000
   H     49.67000000    41.35000000    35.70000000
   H     50.40000000    40.66000000    34.34000000
   H     50.40000000    42.59000000    34.59000000
   N     48.78000000    41.09000000    31.59000000
   C     48.82000000    41.26000000    30.15000000
   C     47.46000000    41.53000000    29.53000000
   O     47.36000000    42.43000000    28.71000000
   C     49.45000000    39.97000000    29.65000000
   C     50.94000000    39.78000000    29.92000000
   C     51.44000000    38.39000000    29.56000000
   O     52.51000000    38.22000000    28.94000000
   O     50.86000000    37.39000000    30.04000000
   H     48.33000000    40.24000000    31.90000000
   H     49.38000000    42.15000000    29.85000000
   H     49.30000000    40.03000000    28.57000000
   H     48.94000000    39.11000000    30.10000000
   H     51.18000000    39.92000000    30.98000000
   H     51.58000000    40.46000000    29.35000000
   N     46.39000000    40.80000000    29.87000000
   C     45.04000000    41.07000000    29.41000000
   H     44.40400000    41.29600000    30.26600000
   H     45.05100000    41.92200000    28.73000000
   H     44.65100000    40.19500000    28.89000000
   H     46.54000000    40.05000000    30.53000000
  Ca     52.93000000    35.76000000    29.63000000
   O     53.82000000    36.44000000    31.98000000
   H     54.63000000    36.88000000    32.25000000
   H     53.55000000    35.94000000    32.75000000

Ca 1.70



