%chk=holoCaM_loop3_41.0.chk
%nprocshared=48
%mem=10GB
%nosave
#b3lyp/svp scf=(tight,noincore) Test 
#IOP(5/87=12) Density=Current Pop=(MK,readradii) iop(6/33=2) iop(6/42=6)

holoCaM_loop3_41.0 

   0   1
   C     85.59000000    33.34000000    26.80000000
   C     87.07000000    33.21000000    27.13000000
   O     87.38000000    32.27000000    27.85000000
   H     85.06100000    33.74700000    27.66100000
   H     85.46400000    34.00800000    25.94800000
   H     85.18400000    32.35800000    26.55600000
   N     87.97000000    34.08000000    26.67000000
   C     89.41000000    34.00000000    26.82000000
   C     89.91000000    34.31000000    28.22000000
   O     89.77000000    35.45000000    28.67000000
   C     90.13000000    34.99000000    25.91000000
   C     91.64000000    35.08000000    26.06000000
   O     92.21000000    35.92000000    25.33000000
   O     92.24000000    34.49000000    26.99000000
   H     87.70000000    34.70000000    25.91000000
   H     89.76000000    33.01000000    26.54000000
   H     89.74000000    36.00000000    25.99000000
   H     89.91000000    34.66000000    24.89000000
   N     90.45000000    33.38000000    29.01000000
   C     90.50000000    33.45000000    30.46000000
   C     91.74000000    34.16000000    30.97000000
   O     91.92000000    34.27000000    32.18000000
   C     90.28000000    32.08000000    31.09000000
   C     88.91000000    31.45000000    30.85000000
   C     87.80000000    32.42000000    31.25000000
   C     86.52000000    31.68000000    30.87000000
   N     85.38000000    32.60000000    30.83000000
   H     90.65000000    32.49000000    28.58000000
   H     89.71000000    34.11000000    30.83000000
   H     90.36000000    32.14000000    32.18000000
   H     91.04000000    31.38000000    30.73000000
   H     88.80000000    30.60000000    31.53000000
   H     88.81000000    31.17000000    29.81000000
   H     87.88000000    33.28000000    30.59000000
   H     87.82000000    32.67000000    32.31000000
   H     86.48000000    30.88000000    31.62000000
   H     86.56000000    31.24000000    29.87000000
   H     85.13000000    33.07000000    31.69000000
   H     85.51000000    33.20000000    30.03000000
   H     84.62000000    32.00000000    30.54000000
   N     92.58000000    34.67000000    30.07000000
   C     93.57000000    35.67000000    30.42000000
   C     93.67000000    36.85000000    29.47000000
   O     94.42000000    37.78000000    29.75000000
   C     94.96000000    35.05000000    30.55000000
   C     95.54000000    34.44000000    29.29000000
   O     94.94000000    34.67000000    28.21000000
   O     96.51000000    33.67000000    29.41000000
   H     92.48000000    34.33000000    29.12000000
   H     93.37000000    36.19000000    31.36000000
   H     94.89000000    34.19000000    31.21000000
   H     95.59000000    35.79000000    31.04000000
   N     92.84000000    36.88000000    28.42000000
   C     92.79000000    37.98000000    27.48000000
   C     93.95000000    38.17000000    26.51000000
   O     94.09000000    39.27000000    26.00000000
   H     92.51000000    35.99000000    28.09000000
   H     92.52000000    38.93000000    27.94000000
   H     92.01000000    37.78000000    26.74000000
   N     94.86000000    37.19000000    26.38000000
   C     95.99000000    37.26000000    25.47000000
   C     95.63000000    37.11000000    24.00000000
   O     96.49000000    37.27000000    23.13000000
   C     97.05000000    36.26000000    25.92000000
   C     96.76000000    34.85000000    25.42000000
   N     97.73000000    33.95000000    25.57000000
   O     95.68000000    34.40000000    25.03000000
   H     94.67000000    36.33000000    26.85000000
   H     96.48000000    38.23000000    25.51000000
   H     97.16000000    36.24000000    27.00000000
   H     97.98000000    36.46000000    25.39000000
   H     98.67000000    34.30000000    25.71000000
   H     97.62000000    32.95000000    25.59000000
   N     94.34000000    37.06000000    23.67000000
   C     93.72000000    37.06000000    22.36000000
   C     93.59000000    35.70000000    21.69000000
   O     93.09000000    35.63000000    20.57000000
   H     93.68000000    36.82000000    24.40000000
   H     94.33000000    37.69000000    21.71000000
   H     92.73000000    37.50000000    22.49000000
   N     94.02000000    34.65000000    22.40000000
   C     93.77000000    33.29000000    21.95000000
   C     92.99000000    32.54000000    23.02000000
   O     92.88000000    32.84000000    24.20000000
   C     95.13000000    32.62000000    21.83000000
   C     96.04000000    33.38000000    20.89000000
   C     96.87000000    34.40000000    21.37000000
   C     96.05000000    33.10000000    19.52000000
   C     97.73000000    35.08000000    20.49000000
   C     96.99000000    33.68000000    18.66000000
   C     97.85000000    34.68000000    19.15000000
   O     98.70000000    35.21000000    18.22000000
   H     94.53000000    34.83000000    23.25000000
   H     93.23000000    33.30000000    21.01000000
   H     95.09000000    31.56000000    21.58000000
   H     95.62000000    32.68000000    22.80000000
   H     96.88000000    34.73000000    22.39000000
   H     95.31000000    32.41000000    19.15000000
   H     98.37000000    35.84000000    20.91000000
   H     97.04000000    33.45000000    17.60000000
   H     98.73000000    34.70000000    17.41000000
   N     92.51000000    31.36000000    22.61000000
   C     91.76000000    30.40000000    23.39000000
   C     92.25000000    28.99000000    23.09000000
   O     92.49000000    28.66000000    21.93000000
   C     90.28000000    30.45000000    22.99000000
   C     89.66000000    31.49000000    23.91000000
   C     89.44000000    29.21000000    23.28000000
   C     88.34000000    32.00000000    23.34000000
   H     92.63000000    31.11000000    21.64000000
   H     91.81000000    30.71000000    24.43000000
   H     90.13000000    30.67000000    21.93000000
   H     90.34000000    32.32000000    24.14000000
   H     89.47000000    31.07000000    24.90000000
   H     89.93000000    28.31000000    22.92000000
   H     89.40000000    29.09000000    24.37000000
   H     88.43000000    29.32000000    22.89000000
   H     88.32000000    32.21000000    22.28000000
   H     87.51000000    31.34000000    23.61000000
   H     88.19000000    33.00000000    23.74000000
   N     92.32000000    28.14000000    24.11000000
   C     92.72000000    26.75000000    24.22000000
   C     91.51000000    25.90000000    24.57000000
   O     90.41000000    26.36000000    24.88000000
   C     93.83000000    26.67000000    25.27000000
   O     93.36000000    27.04000000    26.55000000
   H     92.17000000    28.63000000    24.98000000
   H     93.09000000    26.43000000    23.25000000
   H     94.60000000    27.36000000    24.92000000
   H     94.19000000    25.64000000    25.30000000
   H     93.09000000    27.96000000    26.56000000
   N     91.74000000    24.59000000    24.57000000
   C     90.78000000    23.57000000    24.93000000
   C     90.15000000    23.73000000    26.31000000
   O     88.96000000    23.62000000    26.58000000
   C     91.48000000    22.21000000    24.90000000
   H     92.62000000    24.24000000    24.20000000
   H     90.02000000    23.60000000    24.15000000
   H     90.72000000    21.52000000    25.24000000
   H     91.79000000    21.89000000    23.91000000
   H     92.25000000    22.15000000    25.66000000
   N     90.98000000    24.21000000    27.23000000
   C     90.72000000    24.46000000    28.63000000
   C     89.78000000    25.65000000    28.75000000
   O     88.84000000    25.69000000    29.53000000
   C     92.05000000    24.76000000    29.33000000
   H     91.93000000    24.43000000    26.95000000
   H     90.29000000    23.56000000    29.07000000
   H     92.35000000    25.78000000    29.09000000
   H     91.98000000    24.70000000    30.41000000
   H     92.79000000    24.12000000    28.86000000
   N     89.95000000    26.65000000    27.87000000
   C     89.16000000    27.86000000    27.80000000
   C     87.83000000    27.56000000    27.13000000
   O     86.76000000    28.04000000    27.51000000
   C     89.96000000    28.99000000    27.15000000
   C     91.02000000    29.57000000    28.08000000
   C     92.06000000    30.32000000    27.25000000
   O     92.07000000    31.57000000    27.15000000
   O     92.83000000    29.68000000    26.51000000
   H     90.56000000    26.54000000    27.08000000
   H     88.98000000    28.26000000    28.80000000
   H     89.26000000    29.74000000    26.79000000
   H     90.50000000    28.57000000    26.31000000
   H     91.54000000    28.73000000    28.54000000
   H     90.55000000    30.23000000    28.81000000
   N     87.83000000    26.65000000    26.15000000
   C     86.62000000    26.18000000    25.50000000
   H     85.85100000    26.95000000    25.56500000
   H     86.83000000    25.96400000    24.45200000
   H     86.26900000    25.27400000    25.99500000
   H     88.69000000    26.20000000    25.88000000
  Ca     94.12000000    32.79000000    26.67000000
   O     96.49000000    31.96000000    27.34000000
   H     97.20000000    31.34000000    27.51000000
   H     96.64000000    32.66000000    27.97000000

Ca 1.70



