%chk=holoCaM_loop3_45.0.chk
%nprocshared=48
%mem=10GB
%nosave
#b3lyp/svp scf=(tight,noincore) Test 
#IOP(5/87=12) Density=Current Pop=(MK,readradii) iop(6/33=2) iop(6/42=6)

holoCaM_loop3_45.0 

   0   1
   C     47.83000000    53.38000000    43.46000000
   C     48.27000000    53.09000000    44.89000000
   O     47.50000000    53.45000000    45.77000000
   H     46.97300000    54.05300000    43.47400000
   H     48.65000000    53.84800000    42.91500000
   H     47.55100000    52.44800000    42.96900000
   N     49.40000000    52.42000000    45.10000000
   C     50.02000000    52.38000000    46.41000000
   C     50.47000000    53.75000000    46.90000000
   O     51.40000000    54.34000000    46.35000000
   C     51.16000000    51.37000000    46.37000000
   C     51.94000000    51.22000000    47.68000000
   O     51.35000000    51.39000000    48.77000000
   O     53.15000000    50.94000000    47.66000000
   H     50.03000000    52.20000000    44.33000000
   H     49.29000000    52.06000000    47.14000000
   H     51.80000000    51.66000000    45.53000000
   H     50.74000000    50.38000000    46.20000000
   N     49.79000000    54.31000000    47.91000000
   C     49.71000000    55.71000000    48.28000000
   C     50.82000000    56.08000000    49.25000000
   O     51.31000000    57.21000000    49.19000000
   C     48.31000000    55.89000000    48.87000000
   C     47.90000000    57.36000000    48.86000000
   C     46.46000000    57.42000000    49.34000000
   C     45.82000000    58.72000000    49.84000000
   N     46.41000000    59.32000000    51.05000000
   H     49.20000000    53.68000000    48.43000000
   H     49.80000000    56.28000000    47.35000000
   H     48.44000000    55.52000000    49.89000000
   H     47.56000000    55.36000000    48.29000000
   H     47.96000000    57.83000000    47.87000000
   H     48.53000000    58.01000000    49.46000000
   H     46.39000000    56.60000000    50.05000000
   H     45.85000000    57.09000000    48.50000000
   H     44.77000000    58.63000000    50.11000000
   H     45.85000000    59.46000000    49.05000000
   H     47.41000000    59.45000000    51.05000000
   H     45.96000000    60.19000000    51.29000000
   H     46.32000000    58.67000000    51.82000000
   N     51.21000000    55.21000000    50.17000000
   C     52.41000000    55.41000000    50.96000000
   C     53.63000000    54.91000000    50.20000000
   O     54.68000000    55.54000000    50.29000000
   C     52.26000000    54.84000000    52.36000000
   C     51.88000000    53.37000000    52.43000000
   O     52.50000000    52.55000000    51.72000000
   O     50.84000000    52.91000000    52.97000000
   H     50.65000000    54.39000000    50.40000000
   H     52.65000000    56.47000000    51.08000000
   H     51.51000000    55.45000000    52.86000000
   H     53.24000000    55.03000000    52.79000000
   N     53.53000000    53.84000000    49.41000000
   C     54.59000000    53.45000000    48.49000000
   C     55.33000000    52.21000000    48.95000000
   O     56.28000000    51.71000000    48.35000000
   H     52.62000000    53.40000000    49.41000000
   H     55.35000000    54.22000000    48.39000000
   H     54.11000000    53.32000000    47.52000000
   N     54.81000000    51.52000000    49.97000000
   C     55.39000000    50.38000000    50.66000000
   C     55.31000000    49.05000000    49.94000000
   O     55.79000000    48.04000000    50.45000000
   C     54.80000000    50.23000000    52.06000000
   C     53.46000000    49.53000000    52.17000000
   N     53.09000000    49.09000000    53.38000000
   O     52.64000000    49.41000000    51.26000000
   H     53.90000000    51.83000000    50.27000000
   H     56.45000000    50.58000000    50.79000000
   H     54.68000000    51.19000000    52.57000000
   H     55.61000000    49.70000000    52.56000000
   H     53.78000000    49.12000000    54.12000000
   H     52.33000000    48.43000000    53.44000000
   N     54.71000000    49.04000000    48.75000000
   C     54.70000000    47.84000000    47.94000000
   C     53.37000000    47.09000000    47.92000000
   O     53.31000000    45.95000000    47.47000000
   H     54.23000000    49.87000000    48.43000000
   H     55.38000000    47.19000000    48.50000000
   H     55.02000000    48.04000000    46.92000000
   N     52.35000000    47.74000000    48.48000000
   C     51.14000000    47.02000000    48.84000000
   C     49.94000000    47.95000000    48.83000000
   O     49.92000000    49.01000000    49.44000000
   C     51.09000000    46.44000000    50.25000000
   C     51.99000000    45.27000000    50.57000000
   C     53.23000000    45.47000000    51.18000000
   C     51.51000000    43.99000000    50.29000000
   C     54.04000000    44.35000000    51.45000000
   C     52.30000000    42.88000000    50.63000000
   C     53.60000000    43.05000000    51.13000000
   O     54.42000000    41.97000000    51.32000000
   H     52.46000000    48.68000000    48.81000000
   H     51.01000000    46.22000000    48.12000000
   H     50.03000000    46.33000000    50.50000000
   H     51.42000000    47.19000000    50.96000000
   H     53.62000000    46.46000000    51.36000000
   H     50.56000000    43.86000000    49.80000000
   H     55.02000000    44.45000000    51.88000000
   H     52.05000000    41.91000000    50.22000000
   H     53.93000000    41.14000000    51.34000000
   N     48.82000000    47.55000000    48.21000000
   C     47.66000000    48.42000000    48.14000000
   C     46.72000000    48.03000000    49.27000000
   O     46.32000000    46.86000000    49.30000000
   C     47.03000000    48.39000000    46.75000000
   C     48.02000000    48.85000000    45.69000000
   C     45.69000000    49.12000000    46.73000000
   C     47.48000000    48.77000000    44.26000000
   H     48.79000000    46.70000000    47.68000000
   H     48.02000000    49.44000000    48.27000000
   H     46.74000000    47.35000000    46.57000000
   H     48.89000000    48.18000000    45.69000000
   H     48.40000000    49.85000000    45.87000000
   H     45.14000000    48.90000000    45.82000000
   H     45.06000000    48.93000000    47.60000000
   H     45.79000000    50.20000000    46.70000000
   H     46.60000000    49.36000000    44.02000000
   H     48.25000000    48.99000000    43.53000000
   H     47.17000000    47.72000000    44.20000000
   N     46.26000000    48.91000000    50.15000000
   C     45.19000000    48.67000000    51.10000000
   C     43.84000000    49.28000000    50.75000000
   O     43.72000000    50.05000000    49.80000000
   C     45.61000000    49.19000000    52.47000000
   O     45.71000000    50.60000000    52.47000000
   H     46.75000000    49.79000000    50.21000000
   H     45.01000000    47.60000000    51.20000000
   H     46.56000000    48.73000000    52.72000000
   H     44.89000000    48.94000000    53.25000000
   H     46.60000000    50.75000000    52.13000000
   N     42.79000000    48.90000000    51.48000000
   C     41.49000000    49.41000000    51.11000000
   C     41.33000000    50.92000000    51.21000000
   O     40.96000000    51.56000000    50.22000000
   C     40.40000000    48.63000000    51.84000000
   H     42.88000000    48.22000000    52.23000000
   H     41.26000000    49.12000000    50.09000000
   H     40.68000000    47.60000000    52.05000000
   H     40.21000000    49.12000000    52.80000000
   H     39.51000000    48.72000000    51.21000000
   N     41.73000000    51.58000000    52.30000000
   C     41.69000000    53.02000000    52.49000000
   C     42.60000000    53.75000000    51.51000000
   O     42.19000000    54.81000000    51.04000000
   C     41.96000000    53.40000000    53.94000000
   H     42.04000000    51.10000000    53.13000000
   H     40.65000000    53.23000000    52.27000000
   H     41.51000000    52.69000000    54.65000000
   H     43.02000000    53.45000000    54.20000000
   H     41.51000000    54.38000000    54.10000000
   N     43.69000000    53.15000000    51.02000000
   C     44.45000000    53.67000000    49.90000000
   C     43.70000000    53.67000000    48.58000000
   O     43.46000000    54.73000000    48.01000000
   C     45.75000000    52.88000000    49.84000000
   C     46.74000000    53.18000000    50.96000000
   C     47.97000000    52.29000000    50.91000000
   O     47.92000000    51.09000000    51.28000000
   O     49.01000000    52.83000000    50.47000000
   H     43.95000000    52.23000000    51.34000000
   H     44.75000000    54.68000000    50.16000000
   H     46.28000000    53.06000000    48.90000000
   H     45.55000000    51.81000000    49.76000000
   H     46.20000000    53.13000000    51.91000000
   H     47.02000000    54.24000000    50.97000000
   N     43.27000000    52.47000000    48.17000000
   C     42.59000000    52.13000000    46.93000000
   H     41.69000000    52.73700000    46.83100000
   H     43.25300000    52.32400000    46.08700000
   H     42.31600000    51.07500000    46.94300000
   H     43.53000000    51.69000000    48.74000000
  Ca     50.59000000    50.90000000    51.20000000
   O     49.93000000    49.07000000    53.16000000
   H     49.54000000    48.20000000    53.17000000
   H     49.95000000    49.34000000    54.08000000

Ca 1.70



