%chk=holoCaM_loop3_36.0.chk
%nprocshared=48
%mem=10GB
%nosave
#b3lyp/svp scf=(tight,noincore) Test 
#IOP(5/87=12) Density=Current Pop=(MK,readradii) iop(6/33=2) iop(6/42=6)

holoCaM_loop3_36.0 

   0   1
   C     85.57000000    32.73000000    25.29000000
   C     87.08000000    32.64000000    25.49000000
   O     87.48000000    31.59000000    25.98000000
   H     85.11700000    33.20900000    26.15800000
   H     85.35500000    33.31900000    24.39800000
   H     85.15800000    31.72800000    25.17200000
   N     87.95000000    33.61000000    25.20000000
   C     89.37000000    33.62000000    25.46000000
   C     89.54000000    34.08000000    26.90000000
   O     88.98000000    35.11000000    27.27000000
   C     89.99000000    34.58000000    24.45000000
   C     91.51000000    34.44000000    24.53000000
   O     92.15000000    35.22000000    23.79000000
   O     92.02000000    33.64000000    25.33000000
   H     87.63000000    34.42000000    24.67000000
   H     89.69000000    32.58000000    25.30000000
   H     89.51000000    35.51000000    24.74000000
   H     89.56000000    34.39000000    23.47000000
   N     90.24000000    33.26000000    27.69000000
   C     90.33000000    33.32000000    29.13000000
   C     91.60000000    33.93000000    29.69000000
   O     91.53000000    34.49000000    30.78000000
   C     90.21000000    31.86000000    29.57000000
   C     88.98000000    31.15000000    29.03000000
   C     87.75000000    31.89000000    29.56000000
   C     86.41000000    31.19000000    29.38000000
   N     85.38000000    31.98000000    30.06000000
   H     90.66000000    32.50000000    27.16000000
   H     89.50000000    33.88000000    29.57000000
   H     90.23000000    31.77000000    30.66000000
   H     91.09000000    31.30000000    29.24000000
   H     89.04000000    30.10000000    29.30000000
   H     88.98000000    31.29000000    27.95000000
   H     87.63000000    32.89000000    29.14000000
   H     87.83000000    32.00000000    30.64000000
   H     86.45000000    30.17000000    29.78000000
   H     86.28000000    31.08000000    28.30000000
   H     85.41000000    32.97000000    29.87000000
   H     84.49000000    31.66000000    29.69000000
   H     85.34000000    31.74000000    31.04000000
   N     92.66000000    34.06000000    28.88000000
   C     93.85000000    34.87000000    29.06000000
   C     93.92000000    36.06000000    28.13000000
   O     94.74000000    36.96000000    28.33000000
   C     95.15000000    34.07000000    29.08000000
   C     95.38000000    33.13000000    27.91000000
   O     94.71000000    33.35000000    26.87000000
   O     96.32000000    32.31000000    27.94000000
   H     92.58000000    33.70000000    27.94000000
   H     93.80000000    35.32000000    30.06000000
   H     95.21000000    33.43000000    29.97000000
   H     95.91000000    34.83000000    29.25000000
   N     93.27000000    36.13000000    26.96000000
   C     93.42000000    37.18000000    25.97000000
   C     94.66000000    37.20000000    25.08000000
   O     94.94000000    38.27000000    24.54000000
   H     92.72000000    35.33000000    26.68000000
   H     93.31000000    38.14000000    26.48000000
   H     92.58000000    37.15000000    25.28000000
   N     95.34000000    36.08000000    24.86000000
   C     96.46000000    36.02000000    23.94000000
   C     96.09000000    36.19000000    22.47000000
   O     96.95000000    36.33000000    21.61000000
   C     97.21000000    34.72000000    24.23000000
   C     96.69000000    33.41000000    23.66000000
   N     97.62000000    32.49000000    23.39000000
   O     95.51000000    33.09000000    23.65000000
   H     95.02000000    35.30000000    25.41000000
   H     97.09000000    36.88000000    24.12000000
   H     97.33000000    34.55000000    25.29000000
   H     98.20000000    34.91000000    23.80000000
   H     98.60000000    32.74000000    23.39000000
   H     97.35000000    31.54000000    23.16000000
   N     94.81000000    36.04000000    22.11000000
   C     94.32000000    36.06000000    20.75000000
   C     93.89000000    34.70000000    20.22000000
   O     93.41000000    34.68000000    19.09000000
   H     94.20000000    36.33000000    22.86000000
   H     95.12000000    36.30000000    20.05000000
   H     93.48000000    36.76000000    20.71000000
   N     94.07000000    33.55000000    20.89000000
   C     93.74000000    32.23000000    20.39000000
   C     93.01000000    31.40000000    21.43000000
   O     93.49000000    31.25000000    22.56000000
   C     94.86000000    31.49000000    19.67000000
   C     96.17000000    32.18000000    19.38000000
   C     97.24000000    31.88000000    20.23000000
   C     96.39000000    32.98000000    18.26000000
   C     98.48000000    32.49000000    19.99000000
   C     97.64000000    33.52000000    17.95000000
   C     98.68000000    33.33000000    18.88000000
   O     99.89000000    33.88000000    18.56000000
   H     94.31000000    33.66000000    21.86000000
   H     92.99000000    32.44000000    19.63000000
   H     94.53000000    31.16000000    18.68000000
   H     95.16000000    30.66000000    20.31000000
   H     97.12000000    31.30000000    21.14000000
   H     95.52000000    33.29000000    17.70000000
   H     99.22000000    32.40000000    20.78000000
   H     97.90000000    34.10000000    17.08000000
   H     99.83000000    34.36000000    17.73000000
   N     91.90000000    30.72000000    21.11000000
   C     91.22000000    29.74000000    21.93000000
   C     91.81000000    28.35000000    21.75000000
   O     92.12000000    27.79000000    20.70000000
   C     89.72000000    29.90000000    21.66000000
   C     89.13000000    31.15000000    22.30000000
   C     88.97000000    28.64000000    22.09000000
   C     87.87000000    31.62000000    21.58000000
   H     91.67000000    30.70000000    20.13000000
   H     91.33000000    30.00000000    22.98000000
   H     89.61000000    29.92000000    20.58000000
   H     89.88000000    31.94000000    22.27000000
   H     88.92000000    30.95000000    23.35000000
   H     89.36000000    27.66000000    21.82000000
   H     88.74000000    28.74000000    23.15000000
   H     88.01000000    28.64000000    21.58000000
   H     87.91000000    31.49000000    20.50000000
   H     87.00000000    31.04000000    21.88000000
   H     87.55000000    32.64000000    21.82000000
   N     91.99000000    27.74000000    22.92000000
   C     92.67000000    26.47000000    23.12000000
   C     91.68000000    25.42000000    23.61000000
   O     90.50000000    25.63000000    23.85000000
   C     93.87000000    26.64000000    24.05000000
   O     93.52000000    27.01000000    25.36000000
   H     91.94000000    28.41000000    23.68000000
   H     93.13000000    26.14000000    22.19000000
   H     94.51000000    27.41000000    23.61000000
   H     94.32000000    25.65000000    24.06000000
   H     93.62000000    27.97000000    25.38000000
   N     92.17000000    24.19000000    23.76000000
   C     91.28000000    23.06000000    23.99000000
   C     90.53000000    23.09000000    25.32000000
   O     89.33000000    22.85000000    25.45000000
   C     92.13000000    21.80000000    23.86000000
   H     93.15000000    24.01000000    23.58000000
   H     90.58000000    23.05000000    23.16000000
   H     92.84000000    21.79000000    24.68000000
   H     91.42000000    20.97000000    23.85000000
   H     92.64000000    21.80000000    22.89000000
   N     91.19000000    23.56000000    26.38000000
   C     90.56000000    23.73000000    27.67000000
   C     89.61000000    24.93000000    27.74000000
   O     88.64000000    24.82000000    28.49000000
   C     91.66000000    23.91000000    28.71000000
   H     92.20000000    23.62000000    26.35000000
   H     89.94000000    22.88000000    27.94000000
   H     92.37000000    24.66000000    28.36000000
   H     91.29000000    23.97000000    29.73000000
   H     92.23000000    22.98000000    28.66000000
   N     89.92000000    25.98000000    26.98000000
   C     88.98000000    27.09000000    26.99000000
   C     87.74000000    26.70000000    26.20000000
   O     86.75000000    27.33000000    26.54000000
   C     89.64000000    28.31000000    26.35000000
   C     90.88000000    28.87000000    27.06000000
   C     91.64000000    29.82000000    26.15000000
   O     91.69000000    31.02000000    26.50000000
   O     92.38000000    29.55000000    25.18000000
   H     90.72000000    25.88000000    26.37000000
   H     88.67000000    27.33000000    28.00000000
   H     88.91000000    29.11000000    26.27000000
   H     89.84000000    28.14000000    25.29000000
   H     91.50000000    28.02000000    27.33000000
   H     90.53000000    29.35000000    27.97000000
   N     87.76000000    25.71000000    25.30000000
   C     86.55000000    25.38000000    24.58000000
   H     85.78800000    26.13100000    24.78800000
   H     86.75700000    25.36000000    23.51000000
   H     86.19200000    24.40100000    24.89900000
   H     88.60000000    25.32000000    24.90000000
  Ca     93.79000000    31.74000000    25.15000000
   O     94.86000000    30.37000000    27.23000000
   H     95.12000000    29.50000000    27.55000000
   H     95.49000000    30.97000000    27.63000000

Ca 1.70



