%chk=holoCaM_loop3_32.0.chk
%nprocshared=48
%mem=10GB
%nosave
#b3lyp/svp scf=(tight,noincore) Test 
#IOP(5/87=12) Density=Current Pop=(MK,readradii) iop(6/33=2) iop(6/42=6)

holoCaM_loop3_32.0 

   0   1
   C     37.41000000    46.66000000    42.00000000
   C     37.83000000    46.43000000    43.45000000
   O     36.96000000    45.96000000    44.18000000
   H     36.56000000    47.34200000    41.97200000
   H     38.24200000    47.09400000    41.44500000
   H     37.12700000    45.70900000    41.54800000
   N     39.06000000    46.76000000    43.86000000
   C     39.44000000    46.73000000    45.26000000
   C     39.08000000    48.03000000    45.98000000
   O     39.70000000    49.04000000    45.68000000
   C     40.89000000    46.35000000    45.52000000
   C     41.24000000    46.29000000    47.00000000
   O     40.36000000    46.55000000    47.85000000
   O     42.41000000    45.99000000    47.32000000
   H     39.76000000    46.82000000    43.14000000
   H     38.85000000    45.96000000    45.75000000
   H     41.61000000    47.05000000    45.07000000
   H     41.09000000    45.34000000    45.16000000
   N     38.07000000    47.91000000    46.84000000
   C     37.44000000    49.08000000    47.42000000
   C     38.30000000    49.81000000    48.45000000
   O     38.47000000    51.00000000    48.19000000
   C     36.06000000    48.70000000    47.93000000
   C     35.13000000    49.79000000    48.46000000
   C     33.70000000    49.26000000    48.32000000
   C     32.64000000    50.27000000    48.76000000
   N     31.26000000    49.77000000    48.85000000
   H     37.61000000    47.03000000    47.02000000
   H     37.32000000    49.70000000    46.53000000
   H     36.13000000    48.02000000    48.78000000
   H     35.59000000    48.13000000    47.13000000
   H     35.17000000    50.77000000    47.99000000
   H     35.43000000    49.83000000    49.50000000
   H     33.67000000    48.39000000    48.97000000
   H     33.56000000    49.04000000    47.26000000
   H     32.77000000    51.13000000    48.10000000
   H     32.88000000    50.60000000    49.77000000
   H     31.26000000    48.84000000    49.25000000
   H     30.65000000    50.38000000    49.38000000
   H     30.79000000    49.67000000    47.96000000
   N     38.74000000    49.09000000    49.48000000
   C     39.58000000    49.58000000    50.56000000
   C     41.07000000    49.54000000    50.29000000
   O     41.81000000    50.08000000    51.10000000
   C     39.23000000    48.81000000    51.83000000
   C     39.84000000    47.42000000    51.98000000
   O     40.05000000    46.76000000    50.94000000
   O     40.03000000    47.01000000    53.15000000
   H     38.34000000    48.17000000    49.63000000
   H     39.36000000    50.63000000    50.76000000
   H     38.14000000    48.87000000    51.88000000
   H     39.63000000    49.36000000    52.68000000
   N     41.59000000    48.96000000    49.20000000
   C     42.98000000    49.11000000    48.82000000
   C     43.85000000    48.07000000    49.52000000
   O     45.04000000    48.34000000    49.62000000
   H     40.98000000    48.59000000    48.49000000
   H     43.30000000    50.08000000    49.20000000
   H     43.01000000    49.18000000    47.73000000
   N     43.38000000    46.94000000    50.05000000
   C     44.16000000    45.96000000    50.79000000
   C     44.88000000    44.93000000    49.94000000
   O     45.43000000    43.93000000    50.40000000
   C     43.35000000    45.39000000    51.95000000
   C     42.38000000    44.29000000    51.51000000
   N     42.03000000    43.32000000    52.35000000
   O     41.96000000    44.30000000    50.36000000
   H     42.39000000    46.74000000    49.99000000
   H     44.92000000    46.58000000    51.26000000
   H     42.91000000    46.16000000    52.59000000
   H     44.07000000    44.88000000    52.60000000
   H     42.43000000    43.09000000    53.25000000
   H     41.27000000    42.74000000    52.04000000
   N     44.74000000    45.13000000    48.62000000
   C     45.40000000    44.23000000    47.69000000
   C     44.65000000    42.95000000    47.37000000
   O     45.24000000    41.95000000    46.98000000
   H     44.11000000    45.89000000    48.40000000
   H     46.36000000    43.83000000    48.04000000
   H     45.70000000    44.80000000    46.81000000
   N     43.33000000    42.98000000    47.62000000
   C     42.37000000    41.93000000    47.38000000
   C     40.99000000    42.52000000    47.11000000
   O     40.57000000    43.54000000    47.64000000
   C     42.31000000    40.99000000    48.59000000
   C     43.56000000    40.33000000    49.10000000
   C     44.02000000    40.58000000    50.39000000
   C     44.24000000    39.39000000    48.31000000
   C     45.18000000    39.97000000    50.90000000
   C     45.32000000    38.67000000    48.85000000
   C     45.85000000    39.03000000    50.10000000
   O     46.96000000    38.42000000    50.62000000
   H     42.96000000    43.84000000    47.98000000
   H     42.72000000    41.28000000    46.57000000
   H     41.62000000    40.17000000    48.36000000
   H     41.90000000    41.57000000    49.42000000
   H     43.45000000    41.23000000    51.04000000
   H     43.90000000    39.14000000    47.32000000
   H     45.68000000    40.33000000    51.79000000
   H     45.81000000    37.89000000    48.28000000
   H     47.49000000    37.87000000    50.04000000
   N     40.20000000    41.71000000    46.41000000
   C     38.77000000    41.82000000    46.16000000
   C     38.06000000    40.78000000    47.00000000
   O     38.42000000    39.60000000    46.98000000
   C     38.38000000    41.62000000    44.70000000
   C     39.01000000    42.71000000    43.85000000
   C     36.87000000    41.73000000    44.50000000
   C     38.94000000    42.44000000    42.34000000
   H     40.62000000    40.83000000    46.14000000
   H     38.51000000    42.78000000    46.61000000
   H     38.77000000    40.66000000    44.37000000
   H     40.08000000    42.80000000    44.05000000
   H     38.56000000    43.69000000    43.93000000
   H     36.42000000    40.93000000    45.08000000
   H     36.58000000    42.69000000    44.92000000
   H     36.59000000    41.70000000    43.44000000
   H     39.54000000    43.19000000    41.82000000
   H     39.30000000    41.42000000    42.17000000
   H     37.92000000    42.49000000    41.99000000
   N     37.00000000    41.15000000    47.73000000
   C     36.01000000    40.32000000    48.39000000
   C     34.64000000    40.41000000    47.72000000
   O     34.35000000    41.34000000    46.97000000
   C     35.89000000    40.77000000    49.84000000
   O     35.58000000    42.14000000    49.94000000
   H     36.81000000    42.14000000    47.82000000
   H     36.37000000    39.30000000    48.30000000
   H     36.79000000    40.45000000    50.35000000
   H     35.12000000    40.17000000    50.34000000
   H     36.29000000    42.67000000    49.57000000
   N     33.76000000    39.47000000    48.06000000
   C     32.45000000    39.45000000    47.44000000
   C     31.68000000    40.76000000    47.50000000
   O     31.06000000    41.13000000    46.51000000
   C     31.69000000    38.29000000    48.08000000
   H     33.94000000    38.73000000    48.72000000
   H     32.57000000    39.14000000    46.40000000
   H     32.30000000    37.40000000    48.22000000
   H     31.28000000    38.57000000    49.05000000
   H     30.88000000    38.01000000    47.41000000
   N     31.60000000    41.44000000    48.65000000
   C     30.88000000    42.69000000    48.80000000
   C     31.34000000    43.76000000    47.83000000
   O     30.63000000    44.66000000    47.38000000
   C     31.09000000    43.19000000    50.22000000
   H     32.10000000    41.08000000    49.45000000
   H     29.80000000    42.53000000    48.69000000
   H     30.90000000    42.40000000    50.94000000
   H     32.14000000    43.47000000    50.23000000
   H     30.52000000    44.10000000    50.39000000
   N     32.62000000    43.64000000    47.44000000
   C     33.21000000    44.61000000    46.54000000
   C     33.05000000    44.29000000    45.06000000
   O     32.85000000    45.23000000    44.28000000
   C     34.72000000    44.64000000    46.80000000
   C     35.01000000    45.07000000    48.23000000
   C     36.51000000    44.97000000    48.49000000
   O     37.17000000    43.91000000    48.44000000
   O     37.20000000    46.00000000    48.66000000
   H     33.13000000    42.79000000    47.62000000
   H     32.73000000    45.57000000    46.68000000
   H     35.23000000    45.45000000    46.28000000
   H     35.17000000    43.66000000    46.65000000
   H     34.45000000    44.43000000    48.90000000
   H     34.73000000    46.12000000    48.37000000
   N     32.89000000    43.02000000    44.71000000
   C     32.48000000    42.65000000    43.37000000
   H     31.62100000    43.25200000    43.07400000
   H     33.30200000    42.82600000    42.67600000
   H     32.20700000    41.59500000    43.35100000
   H     32.98000000    42.40000000    45.51000000
  Ca     39.33000000    44.94000000    49.45000000
   O     37.87000000    44.65000000    51.61000000
   H     38.10000000    43.94000000    52.21000000
   H     37.07000000    45.03000000    51.99000000

Ca 1.70



