%chk=holoCaM_loop3_37.0.chk
%nprocshared=48
%mem=10GB
%nosave
#b3lyp/svp scf=(tight,noincore) Test 
#IOP(5/87=12) Density=Current Pop=(MK,readradii) iop(6/33=2) iop(6/42=6)

holoCaM_loop3_37.0 

   0   1
   C     75.25000000    61.28000000    96.07000000
   C     76.66000000    61.84000000    96.07000000
   O     77.52000000    61.01000000    95.81000000
   H     74.58400000    61.97400000    95.55700000
   H     75.24000000    60.31900000    95.55500000
   H     74.91200000    61.14600000    97.09700000
   N     77.02000000    63.04000000    96.54000000
   C     78.36000000    63.57000000    96.71000000
   C     79.09000000    62.97000000    97.91000000
   O     78.63000000    63.06000000    99.05000000
   C     78.22000000    65.08000000    96.81000000
   C     79.48000000    65.83000000    97.24000000
   O     79.38000000    66.85000000    97.95000000
   O     80.56000000    65.31000000    96.89000000
   H     76.37000000    63.52000000    97.15000000
   H     78.95000000    63.38000000    95.82000000
   H     77.44000000    65.33000000    97.54000000
   H     77.78000000    65.44000000    95.88000000
   N     80.23000000    62.32000000    97.69000000
   C     80.95000000    61.60000000    98.73000000
   C     81.60000000    62.48000000    99.79000000
   O     81.64000000    62.11000000   100.96000000
   C     82.01000000    60.64000000    98.21000000
   C     81.48000000    59.75000000    97.09000000
   C     80.28000000    58.85000000    97.36000000
   C     79.62000000    58.31000000    96.09000000
   N     78.30000000    57.81000000    96.49000000
   H     80.66000000    62.43000000    96.78000000
   H     80.19000000    61.07000000    99.30000000
   H     82.31000000    60.02000000    99.06000000
   H     82.86000000    61.25000000    97.92000000
   H     82.15000000    58.98000000    96.71000000
   H     81.19000000    60.28000000    96.18000000
   H     79.57000000    59.39000000    97.99000000
   H     80.72000000    57.98000000    97.85000000
   H     80.30000000    57.55000000    95.70000000
   H     79.51000000    59.11000000    95.36000000
   H     77.75000000    57.39000000    95.75000000
   H     78.40000000    57.02000000    97.11000000
   H     77.75000000    58.55000000    96.90000000
   N     82.07000000    63.64000000    99.34000000
   C     83.06000000    64.44000000   100.03000000
   C     82.53000000    65.81000000   100.44000000
   O     83.26000000    66.54000000   101.11000000
   C     84.38000000    64.56000000    99.26000000
   C     84.02000000    64.76000000    97.80000000
   O     84.18000000    65.84000000    97.18000000
   O     83.61000000    63.77000000    97.16000000
   H     81.82000000    63.89000000    98.39000000
   H     83.30000000    63.87000000   100.92000000
   H     84.82000000    63.58000000    99.42000000
   H     85.06000000    65.26000000    99.74000000
   N     81.29000000    66.18000000   100.12000000
   C     80.64000000    67.35000000   100.68000000
   C     81.00000000    68.63000000    99.93000000
   O     80.60000000    69.75000000   100.24000000
   H     80.65000000    65.60000000    99.59000000
   H     80.92000000    67.48000000   101.72000000
   H     79.55000000    67.32000000   100.62000000
   N     81.71000000    68.49000000    98.81000000
   C     82.30000000    69.58000000    98.06000000
   C     81.44000000    70.28000000    97.02000000
   O     81.75000000    71.31000000    96.41000000
   C     83.56000000    69.01000000    97.41000000
   C     83.47000000    68.41000000    96.01000000
   N     84.47000000    68.56000000    95.14000000
   O     82.48000000    67.76000000    95.68000000
   H     81.64000000    67.63000000    98.29000000
   H     82.51000000    70.45000000    98.69000000
   H     83.97000000    68.21000000    98.02000000
   H     84.22000000    69.87000000    97.36000000
   H     85.20000000    69.18000000    95.46000000
   H     84.33000000    68.19000000    94.22000000
   N     80.27000000    69.72000000    96.72000000
   C     79.24000000    70.27000000    95.86000000
   C     79.41000000    69.86000000    94.41000000
   O     78.89000000    70.55000000    93.54000000
   H     80.13000000    68.81000000    97.14000000
   H     79.05000000    71.34000000    95.89000000
   H     78.31000000    69.81000000    96.20000000
   N     80.12000000    68.80000000    94.02000000
   C     80.47000000    68.47000000    92.65000000
   C     80.48000000    66.95000000    92.57000000
   O     81.07000000    66.31000000    93.44000000
   C     81.88000000    68.97000000    92.32000000
   C     82.09000000    70.46000000    92.16000000
   C     82.64000000    71.27000000    93.15000000
   C     81.58000000    71.04000000    90.99000000
   C     82.88000000    72.65000000    93.02000000
   C     81.91000000    72.39000000    90.80000000
   C     82.53000000    73.20000000    91.77000000
   O     82.87000000    74.49000000    91.52000000
   H     80.57000000    68.31000000    94.78000000
   H     79.74000000    68.86000000    91.95000000
   H     82.17000000    68.50000000    91.39000000
   H     82.58000000    68.56000000    93.05000000
   H     82.98000000    70.90000000    94.11000000
   H     81.11000000    70.41000000    90.26000000
   H     83.33000000    73.17000000    93.85000000
   H     81.58000000    72.89000000    89.90000000
   H     82.61000000    74.92000000    90.70000000
   N     80.08000000    66.45000000    91.40000000
   C     80.01000000    65.05000000    91.04000000
   C     81.05000000    64.82000000    89.95000000
   O     81.12000000    65.57000000    88.98000000
   C     78.58000000    64.67000000    90.64000000
   C     77.58000000    64.74000000    91.79000000
   C     78.56000000    63.31000000    89.96000000
   C     77.52000000    63.64000000    92.84000000
   H     79.62000000    67.11000000    90.79000000
   H     80.32000000    64.41000000    91.87000000
   H     78.13000000    65.34000000    89.91000000
   H     76.55000000    64.70000000    91.44000000
   H     77.71000000    65.65000000    92.38000000
   H     79.09000000    63.36000000    89.00000000
   H     78.92000000    62.50000000    90.60000000
   H     77.57000000    62.88000000    89.89000000
   H     77.21000000    62.69000000    92.40000000
   H     78.48000000    63.48000000    93.31000000
   H     76.70000000    63.86000000    93.53000000
   N     81.88000000    63.83000000    90.26000000
   C     82.90000000    63.32000000    89.36000000
   C     82.49000000    61.93000000    88.90000000
   O     81.47000000    61.43000000    89.37000000
   C     84.30000000    63.49000000    89.95000000
   O     84.40000000    62.81000000    91.18000000
   H     81.79000000    63.33000000    91.13000000
   H     82.88000000    63.96000000    88.48000000
   H     84.55000000    64.53000000    90.13000000
   H     85.08000000    63.14000000    89.27000000
   H     83.71000000    63.11000000    91.77000000
   N     83.25000000    61.29000000    88.02000000
   C     82.90000000    60.14000000    87.20000000
   C     82.29000000    59.05000000    88.06000000
   O     81.22000000    58.51000000    87.79000000
   C     84.09000000    59.66000000    86.38000000
   H     84.17000000    61.62000000    87.74000000
   H     82.15000000    60.47000000    86.48000000
   H     84.61000000    60.50000000    85.90000000
   H     84.86000000    59.20000000    87.00000000
   H     83.79000000    58.92000000    85.64000000
   N     83.08000000    58.60000000    89.05000000
   C     82.77000000    57.52000000    89.95000000
   C     81.56000000    57.72000000    90.86000000
   O     80.83000000    56.77000000    91.12000000
   C     83.96000000    57.16000000    90.83000000
   H     83.92000000    59.14000000    89.23000000
   H     82.51000000    56.62000000    89.39000000
   H     84.00000000    57.94000000    91.59000000
   H     83.64000000    56.18000000    91.18000000
   H     84.92000000    57.16000000    90.30000000
   N     81.31000000    58.97000000    91.27000000
   C     80.16000000    59.51000000    91.96000000
   C     78.89000000    59.54000000    91.12000000
   O     77.84000000    59.37000000    91.72000000
   C     80.55000000    60.87000000    92.55000000
   C     81.90000000    61.02000000    93.24000000
   C     81.97000000    62.44000000    93.78000000
   O     81.45000000    62.75000000    94.88000000
   O     82.57000000    63.28000000    93.08000000
   H     81.94000000    59.68000000    90.93000000
   H     79.81000000    58.84000000    92.74000000
   H     79.76000000    61.03000000    93.27000000
   H     80.47000000    61.74000000    91.90000000
   H     82.73000000    60.87000000    92.54000000
   H     82.13000000    60.23000000    93.96000000
   N     79.00000000    59.72000000    89.80000000
   C     77.94000000    59.58000000    88.82000000
   H     77.10400000    60.22300000    89.09500000
   H     78.31200000    59.87000000    87.83700000
   H     77.60500000    58.54300000    88.79100000
   H     79.85000000    60.10000000    89.42000000
  Ca     82.64000000    65.15000000    95.23000000
   O     84.25000000    66.21000000    93.34000000
   H     84.13000000    66.45000000    92.43000000
   H     85.13000000    65.84000000    93.38000000

Ca 1.70



