%chk=CaMKII_loop3_51.0.chk
%nprocshared=48
%mem=10GB
%nosave
#b3lyp/svp scf=(tight,noincore) Test 
#IOP(5/87=12) Density=Current Pop=(MK,readradii) iop(6/33=2) iop(6/42=6)

CaMKII_loop3_51.0 

   0   1
   C     79.63000000    58.77000000    19.91000000
   C     79.29000000    57.40000000    19.36000000
   O     80.23000000    56.67000000    19.04000000
   H     80.53100000    59.14300000    19.42300000
   H     78.80400000    59.45500000    19.71800000
   H     79.80100000    58.69900000    20.98400000
   N     78.06000000    56.89000000    19.19000000
   C     77.75000000    55.65000000    18.51000000
   C     77.71000000    55.75000000    16.99000000
   O     76.72000000    56.08000000    16.35000000
   C     76.44000000    55.04000000    19.00000000
   C     76.27000000    53.62000000    18.51000000
   O     75.18000000    53.11000000    18.85000000
   O     77.14000000    53.09000000    17.77000000
   H     77.26000000    57.45000000    19.45000000
   H     78.54000000    54.93000000    18.72000000
   H     75.68000000    55.77000000    18.72000000
   H     76.49000000    55.03000000    20.09000000
   N     78.79000000    55.39000000    16.30000000
   C     79.09000000    55.48000000    14.89000000
   C     78.21000000    54.73000000    13.90000000
   O     77.80000000    55.20000000    12.83000000
   C     80.57000000    55.20000000    14.66000000
   C     81.13000000    55.63000000    13.31000000
   C     82.65000000    55.70000000    13.17000000
   C     83.06000000    56.08000000    11.75000000
   N     84.51000000    56.23000000    11.58000000
   H     79.51000000    54.91000000    16.83000000
   H     78.93000000    56.52000000    14.57000000
   H     80.84000000    54.17000000    14.93000000
   H     81.02000000    55.81000000    15.45000000
   H     80.68000000    56.59000000    13.04000000
   H     80.84000000    54.89000000    12.56000000
   H     83.07000000    54.71000000    13.34000000
   H     83.09000000    56.39000000    13.89000000
   H     82.57000000    57.03000000    11.56000000
   H     82.73000000    55.30000000    11.06000000
   H     84.91000000    56.89000000    12.23000000
   H     84.96000000    55.32000000    11.58000000
   H     84.56000000    56.57000000    10.63000000
   N     77.85000000    53.52000000    14.32000000
   C     77.02000000    52.61000000    13.56000000
   C     75.59000000    52.54000000    14.08000000
   O     74.78000000    51.92000000    13.40000000
   C     77.65000000    51.23000000    13.68000000
   C     77.86000000    50.77000000    15.12000000
   O     76.91000000    50.68000000    15.92000000
   O     79.03000000    50.58000000    15.51000000
   H     78.20000000    53.30000000    15.24000000
   H     77.05000000    52.87000000    12.50000000
   H     78.58000000    51.22000000    13.10000000
   H     77.01000000    50.51000000    13.18000000
   N     75.36000000    53.21000000    15.22000000
   C     74.08000000    53.56000000    15.80000000
   C     73.47000000    52.39000000    16.56000000
   O     72.32000000    52.48000000    17.00000000
   H     76.14000000    53.75000000    15.55000000
   H     73.35000000    53.94000000    15.09000000
   H     74.23000000    54.45000000    16.41000000
   N     74.11000000    51.23000000    16.65000000
   C     73.59000000    49.99000000    17.20000000
   C     73.17000000    50.03000000    18.67000000
   O     72.75000000    48.95000000    19.10000000
   C     74.57000000    48.85000000    16.94000000
   C     75.74000000    48.73000000    17.91000000
   N     76.45000000    47.62000000    17.73000000
   O     76.23000000    49.64000000    18.58000000
   H     75.05000000    51.25000000    16.28000000
   H     72.73000000    49.77000000    16.56000000
   H     74.98000000    48.85000000    15.93000000
   H     73.99000000    47.93000000    17.05000000
   H     76.13000000    47.07000000    16.94000000
   H     77.19000000    47.45000000    18.39000000
   N     73.36000000    51.07000000    19.48000000
   C     73.15000000    51.22000000    20.91000000
   C     74.32000000    51.24000000    21.88000000
   O     74.07000000    51.32000000    23.09000000
   H     73.76000000    51.91000000    19.08000000
   H     72.53000000    50.38000000    21.23000000
   H     72.67000000    52.16000000    21.17000000
   N     75.57000000    51.13000000    21.43000000
   C     76.71000000    50.94000000    22.30000000
   C     77.97000000    51.59000000    21.75000000
   O     78.25000000    51.56000000    20.55000000
   C     76.99000000    49.44000000    22.33000000
   C     75.85000000    48.57000000    22.80000000
   C     75.53000000    48.50000000    24.16000000
   C     74.99000000    47.99000000    21.86000000
   C     74.40000000    47.80000000    24.60000000
   C     73.89000000    47.29000000    22.34000000
   C     73.57000000    47.10000000    23.70000000
   O     72.48000000    46.35000000    24.01000000
   H     75.60000000    50.99000000    20.43000000
   H     76.61000000    51.40000000    23.29000000
   H     77.73000000    49.17000000    23.08000000
   H     77.40000000    49.14000000    21.37000000
   H     76.22000000    48.94000000    24.87000000
   H     75.19000000    48.02000000    20.79000000
   H     74.24000000    47.65000000    25.66000000
   H     73.17000000    46.81000000    21.68000000
   H     72.16000000    45.93000000    23.21000000
   N     78.76000000    52.16000000    22.66000000
   C     80.00000000    52.82000000    22.30000000
   C     81.12000000    51.80000000    22.47000000
   O     81.28000000    51.32000000    23.59000000
   C     80.16000000    54.02000000    23.23000000
   C     79.06000000    55.05000000    23.03000000
   C     81.51000000    54.62000000    22.84000000
   C     78.97000000    56.02000000    24.21000000
   H     78.62000000    52.08000000    23.66000000
   H     80.04000000    53.13000000    21.25000000
   H     80.20000000    53.70000000    24.27000000
   H     78.06000000    54.61000000    23.11000000
   H     79.12000000    55.65000000    22.12000000
   H     81.70000000    54.58000000    21.77000000
   H     81.58000000    55.59000000    23.34000000
   H     82.38000000    54.15000000    23.29000000
   H     79.84000000    56.67000000    24.19000000
   H     78.12000000    56.69000000    24.08000000
   H     78.85000000    55.40000000    25.09000000
   N     81.99000000    51.58000000    21.49000000
   C     83.32000000    51.00000000    21.58000000
   C     84.48000000    51.94000000    21.30000000
   O     84.35000000    53.13000000    21.01000000
   C     83.29000000    49.75000000    20.70000000
   O     83.02000000    50.07000000    19.35000000
   H     81.72000000    51.99000000    20.60000000
   H     83.45000000    50.74000000    22.63000000
   H     82.42000000    49.21000000    21.07000000
   H     84.15000000    49.10000000    20.87000000
   H     82.18000000    50.52000000    19.30000000
   N     85.67000000    51.44000000    21.63000000
   C     86.94000000    52.13000000    21.58000000
   C     87.29000000    52.89000000    20.31000000
   O     87.52000000    54.09000000    20.45000000
   C     88.09000000    51.40000000    22.27000000
   H     85.57000000    50.53000000    22.06000000
   H     86.81000000    52.98000000    22.26000000
   H     87.81000000    50.90000000    23.19000000
   H     88.41000000    50.68000000    21.51000000
   H     88.83000000    52.14000000    22.59000000
   N     87.11000000    52.29000000    19.13000000
   C     87.23000000    52.90000000    17.82000000
   C     86.26000000    54.05000000    17.59000000
   O     86.55000000    55.06000000    16.95000000
   C     87.09000000    51.71000000    16.87000000
   H     86.71000000    51.37000000    19.13000000
   H     88.26000000    53.22000000    17.68000000
   H     86.16000000    51.18000000    17.07000000
   H     87.02000000    52.01000000    15.83000000
   H     87.91000000    51.00000000    16.99000000
   N     85.04000000    54.00000000    18.13000000
   C     84.00000000    55.00000000    17.96000000
   C     84.31000000    56.29000000    18.71000000
   O     84.36000000    57.37000000    18.12000000
   C     82.64000000    54.37000000    18.22000000
   C     82.36000000    53.07000000    17.48000000
   C     80.96000000    52.54000000    17.75000000
   O     80.78000000    51.84000000    18.77000000
   O     80.03000000    52.83000000    16.98000000
   H     84.80000000    53.13000000    18.58000000
   H     84.03000000    55.31000000    16.91000000
   H     81.87000000    55.00000000    17.78000000
   H     82.57000000    54.29000000    19.31000000
   H     83.06000000    52.32000000    17.84000000
   H     82.59000000    53.17000000    16.42000000
   N     84.64000000    56.14000000    19.99000000
   C     84.97000000    57.30000000    20.80000000
   H     85.84500000    57.79800000    20.38200000
   H     84.12700000    57.99200000    20.80600000
   H     85.18700000    56.98200000    21.82000000
   H     84.66000000    55.18000000    20.32000000
  Ca     78.32000000    50.93000000    18.01000000
   O     79.17000000    48.58000000    19.33000000
   H     80.04000000    48.29000000    19.05000000
   H     78.79000000    47.82000000    19.77000000

Ca 1.70



