%chk=CaMKII_loop3_46.0.chk
%nprocshared=48
%mem=10GB
%nosave
#b3lyp/svp scf=(tight,noincore) Test 
#IOP(5/87=12) Density=Current Pop=(MK,readradii) iop(6/33=2) iop(6/42=6)

CaMKII_loop3_46.0 

   0   1
   C     81.39000000    48.09000000    36.38000000
   C     80.63000000    47.49000000    37.56000000
   O     81.26000000    46.77000000    38.33000000
   H     82.38600000    47.64900000    36.32800000
   H     80.85100000    47.88000000    35.45600000
   H     81.47700000    49.16800000    36.51400000
   N     79.36000000    47.85000000    37.78000000
   C     78.46000000    47.29000000    38.77000000
   C     77.38000000    46.42000000    38.15000000
   O     76.25000000    46.81000000    37.89000000
   C     77.88000000    48.40000000    39.64000000
   C     77.02000000    47.93000000    40.82000000
   O     77.20000000    46.74000000    41.12000000
   O     76.20000000    48.70000000    41.36000000
   H     79.04000000    48.71000000    37.36000000
   H     79.05000000    46.68000000    39.45000000
   H     77.39000000    49.13000000    39.00000000
   H     78.64000000    48.91000000    40.23000000
   N     77.90000000    45.31000000    37.61000000
   C     77.26000000    44.17000000    37.00000000
   C     76.31000000    43.39000000    37.89000000
   O     75.30000000    42.89000000    37.39000000
   C     78.27000000    43.11000000    36.55000000
   C     79.31000000    43.54000000    35.52000000
   C     80.36000000    42.47000000    35.22000000
   C     81.23000000    42.76000000    34.00000000
   N     82.26000000    43.73000000    34.41000000
   H     78.89000000    45.18000000    37.76000000
   H     76.73000000    44.51000000    36.11000000
   H     77.81000000    42.21000000    36.15000000
   H     78.86000000    42.72000000    37.37000000
   H     79.86000000    44.42000000    35.85000000
   H     78.81000000    43.79000000    34.58000000
   H     79.80000000    41.55000000    35.05000000
   H     81.01000000    42.20000000    36.05000000
   H     80.57000000    43.19000000    33.25000000
   H     81.69000000    41.82000000    33.70000000
   H     81.87000000    44.58000000    34.78000000
   H     82.81000000    43.35000000    35.17000000
   H     82.97000000    43.86000000    33.71000000
   N     76.63000000    43.42000000    39.19000000
   C     75.82000000    42.82000000    40.22000000
   C     74.66000000    43.69000000    40.69000000
   O     73.72000000    43.15000000    41.28000000
   C     76.63000000    42.44000000    41.46000000
   C     77.57000000    43.51000000    42.00000000
   O     77.28000000    44.07000000    43.08000000
   O     78.51000000    43.99000000    41.33000000
   H     77.45000000    43.97000000    39.42000000
   H     75.49000000    41.82000000    39.93000000
   H     77.17000000    41.50000000    41.33000000
   H     75.97000000    42.26000000    42.31000000
   N     74.85000000    45.01000000    40.62000000
   C     73.74000000    45.94000000    40.69000000
   C     73.28000000    46.27000000    42.10000000
   O     72.11000000    46.23000000    42.49000000
   H     75.78000000    45.39000000    40.50000000
   H     72.94000000    45.53000000    40.08000000
   H     74.20000000    46.81000000    40.22000000
   N     74.28000000    46.53000000    42.95000000
   C     74.07000000    46.80000000    44.35000000
   C     74.32000000    48.28000000    44.66000000
   O     73.97000000    48.68000000    45.77000000
   C     74.97000000    45.90000000    45.20000000
   C     76.34000000    46.51000000    45.47000000
   N     76.85000000    46.54000000    46.71000000
   O     77.11000000    46.81000000    44.56000000
   H     75.23000000    46.51000000    42.60000000
   H     73.04000000    46.55000000    44.60000000
   H     75.07000000    44.91000000    44.77000000
   H     74.50000000    45.80000000    46.17000000
   H     76.40000000    46.03000000    47.46000000
   H     77.78000000    46.91000000    46.78000000
   N     74.78000000    49.07000000    43.69000000
   C     74.98000000    50.51000000    43.72000000
   C     76.42000000    51.00000000    43.64000000
   O     76.66000000    52.20000000    43.50000000
   H     75.19000000    48.71000000    42.85000000
   H     74.61000000    50.90000000    44.67000000
   H     74.42000000    50.93000000    42.89000000
   N     77.38000000    50.08000000    43.80000000
   C     78.75000000    50.48000000    44.05000000
   C     79.78000000    49.67000000    43.27000000
   O     79.52000000    48.59000000    42.75000000
   C     79.08000000    50.23000000    45.52000000
   C     78.21000000    50.89000000    46.57000000
   C     78.19000000    52.29000000    46.66000000
   C     77.30000000    50.13000000    47.30000000
   C     77.35000000    52.87000000    47.62000000
   C     76.47000000    50.73000000    48.25000000
   C     76.41000000    52.14000000    48.37000000
   O     75.72000000    52.85000000    49.31000000
   H     77.11000000    49.12000000    43.67000000
   H     78.89000000    51.56000000    43.96000000
   H     80.11000000    50.42000000    45.80000000
   H     78.99000000    49.17000000    45.75000000
   H     78.88000000    52.93000000    46.13000000
   H     77.26000000    49.06000000    47.14000000
   H     77.42000000    53.94000000    47.72000000
   H     75.69000000    50.16000000    48.73000000
   H     75.17000000    52.29000000    49.86000000
   N     81.04000000    50.12000000    43.21000000
   C     82.12000000    49.47000000    42.51000000
   C     83.22000000    49.24000000    43.54000000
   O     83.59000000    50.20000000    44.21000000
   C     82.58000000    50.32000000    41.33000000
   C     81.43000000    50.73000000    40.41000000
   C     83.68000000    49.61000000    40.55000000
   C     81.78000000    51.78000000    39.36000000
   H     81.09000000    51.09000000    43.49000000
   H     81.86000000    48.48000000    42.13000000
   H     83.03000000    51.23000000    41.72000000
   H     80.61000000    51.12000000    41.01000000
   H     81.06000000    49.86000000    39.87000000
   H     83.96000000    50.20000000    39.68000000
   H     84.48000000    49.46000000    41.28000000
   H     83.38000000    48.58000000    40.34000000
   H     81.02000000    51.67000000    38.60000000
   H     81.66000000    52.78000000    39.78000000
   H     82.75000000    51.68000000    38.88000000
   N     83.80000000    48.04000000    43.63000000
   C     85.06000000    47.79000000    44.30000000
   C     86.29000000    47.97000000    43.43000000
   O     86.23000000    48.07000000    42.20000000
   C     85.10000000    46.41000000    44.94000000
   O     85.00000000    45.44000000    43.91000000
   H     83.53000000    47.36000000    42.94000000
   H     85.08000000    48.52000000    45.12000000
   H     84.45000000    46.17000000    45.78000000
   H     86.08000000    46.33000000    45.41000000
   H     84.49000000    44.73000000    44.32000000
   N     87.42000000    48.06000000    44.13000000
   C     88.67000000    48.06000000    43.38000000
   C     88.83000000    46.77000000    42.59000000
   O     89.30000000    46.87000000    41.45000000
   C     89.80000000    48.17000000    44.40000000
   H     87.32000000    48.08000000    45.13000000
   H     88.72000000    48.91000000    42.70000000
   H     90.75000000    48.37000000    43.91000000
   H     89.64000000    49.05000000    45.02000000
   H     89.95000000    47.25000000    44.96000000
   N     88.40000000    45.60000000    43.05000000
   C     88.39000000    44.39000000    42.25000000
   C     87.36000000    44.42000000    41.14000000
   O     87.66000000    43.86000000    40.08000000
   C     88.09000000    43.16000000    43.10000000
   H     88.12000000    45.55000000    44.02000000
   H     89.38000000    44.21000000    41.83000000
   H     87.14000000    43.32000000    43.62000000
   H     88.04000000    42.34000000    42.39000000
   H     88.82000000    42.95000000    43.88000000
   N     86.24000000    45.13000000    41.24000000
   C     85.25000000    45.20000000    40.18000000
   C     85.64000000    46.14000000    39.05000000
   O     85.18000000    46.04000000    37.92000000
   C     83.88000000    45.56000000    40.75000000
   C     83.06000000    44.45000000    41.39000000
   C     81.74000000    44.93000000    41.99000000
   O     81.22000000    44.40000000    42.99000000
   O     81.15000000    45.89000000    41.45000000
   H     85.96000000    45.51000000    42.14000000
   H     85.07000000    44.22000000    39.75000000
   H     83.27000000    45.88000000    39.90000000
   H     83.99000000    46.41000000    41.43000000
   H     83.71000000    44.15000000    42.22000000
   H     82.82000000    43.68000000    40.67000000
   N     86.52000000    47.11000000    39.33000000
   C     87.20000000    47.94000000    38.35000000
   H     88.19600000    47.53900000    38.16400000
   H     86.63200000    47.94500000    37.42000000
   H     87.28400000    48.95800000    38.73100000
   H     86.93000000    47.09000000    40.25000000
  Ca     79.13000000    45.95000000    43.12000000
   O     80.66000000    46.97000000    45.07000000
   H     80.52000000    46.31000000    45.74000000
   H     81.43000000    47.46000000    45.36000000

Ca 1.70



