%chk=CaMKII_loop3_45.0.chk
%nprocshared=48
%mem=10GB
%nosave
#b3lyp/svp scf=(tight,noincore) Test 
#IOP(5/87=12) Density=Current Pop=(MK,readradii) iop(6/33=2) iop(6/42=6)

CaMKII_loop3_45.0 

   0   1
   C     87.75000000    64.21000000    30.98000000
   C     87.49000000    64.36000000    32.47000000
   O     88.09000000    63.75000000    33.35000000
   H     88.79600000    63.95100000    30.81900000
   H     87.11500000    63.42100000    30.57700000
   H     87.52700000    65.15000000    30.47500000
   N     86.52000000    65.18000000    32.87000000
   C     86.03000000    65.24000000    34.23000000
   C     84.99000000    64.20000000    34.64000000
   O     83.96000000    64.03000000    34.00000000
   C     85.65000000    66.68000000    34.53000000
   C     84.96000000    66.99000000    35.86000000
   O     84.82000000    66.08000000    36.70000000
   O     84.51000000    68.15000000    35.99000000
   H     86.13000000    65.78000000    32.15000000
   H     86.83000000    64.99000000    34.93000000
   H     85.01000000    67.12000000    33.77000000
   H     86.58000000    67.26000000    34.58000000
   N     85.25000000    63.41000000    35.68000000
   C     84.56000000    62.18000000    35.99000000
   C     83.25000000    62.35000000    36.74000000
   O     82.33000000    61.53000000    36.70000000
   C     85.59000000    61.32000000    36.72000000
   C     85.21000000    59.84000000    36.73000000
   C     86.33000000    59.02000000    37.36000000
   C     85.94000000    57.54000000    37.32000000
   N     87.00000000    56.62000000    37.77000000
   H     86.08000000    63.64000000    36.21000000
   H     84.29000000    61.69000000    35.06000000
   H     85.58000000    61.65000000    37.76000000
   H     86.51000000    61.41000000    36.15000000
   H     85.04000000    59.49000000    35.71000000
   H     84.31000000    59.73000000    37.33000000
   H     86.32000000    59.33000000    38.41000000
   H     87.22000000    59.23000000    36.77000000
   H     85.61000000    57.29000000    36.32000000
   H     84.99000000    57.47000000    37.85000000
   H     87.27000000    56.81000000    38.72000000
   H     86.85000000    55.64000000    37.60000000
   H     87.82000000    56.73000000    37.19000000
   N     83.09000000    63.31000000    37.66000000
   C     81.89000000    63.62000000    38.40000000
   C     81.18000000    64.86000000    37.88000000
   O     80.12000000    65.27000000    38.37000000
   C     82.15000000    63.64000000    39.90000000
   C     83.21000000    64.65000000    40.32000000
   O     83.81000000    65.36000000    39.49000000
   O     83.54000000    64.75000000    41.53000000
   H     83.93000000    63.87000000    37.74000000
   H     81.21000000    62.80000000    38.20000000
   H     82.42000000    62.66000000    40.32000000
   H     81.26000000    64.04000000    40.39000000
   N     81.77000000    65.67000000    37.00000000
   C     81.05000000    66.83000000    36.50000000
   C     81.13000000    67.99000000    37.48000000
   O     80.25000000    68.85000000    37.48000000
   H     82.73000000    65.47000000    36.76000000
   H     80.05000000    66.47000000    36.28000000
   H     81.56000000    67.13000000    35.59000000
   N     82.07000000    67.97000000    38.43000000
   C     82.10000000    68.96000000    39.49000000
   C     82.74000000    70.29000000    39.14000000
   O     82.49000000    71.26000000    39.86000000
   C     82.66000000    68.27000000    40.73000000
   C     84.18000000    68.15000000    40.77000000
   N     84.83000000    67.96000000    41.92000000
   O     84.91000000    68.37000000    39.81000000
   H     82.58000000    67.11000000    38.59000000
   H     81.05000000    69.16000000    39.69000000
   H     82.23000000    67.26000000    40.79000000
   H     82.29000000    68.80000000    41.60000000
   H     84.35000000    67.92000000    42.81000000
   H     85.84000000    67.96000000    41.90000000
   N     83.45000000    70.29000000    38.01000000
   C     84.12000000    71.47000000    37.49000000
   C     85.63000000    71.50000000    37.36000000
   O     86.16000000    72.52000000    36.94000000
   H     83.64000000    69.44000000    37.50000000
   H     83.89000000    72.36000000    38.07000000
   H     83.77000000    71.73000000    36.49000000
   N     86.31000000    70.37000000    37.56000000
   C     87.72000000    70.12000000    37.81000000
   C     88.12000000    68.72000000    37.34000000
   O     87.50000000    67.67000000    37.49000000
   C     87.94000000    70.25000000    39.31000000
   C     87.72000000    71.60000000    39.96000000
   C     88.60000000    72.68000000    39.98000000
   C     86.61000000    71.69000000    40.82000000
   C     88.35000000    73.90000000    40.60000000
   C     86.28000000    72.91000000    41.41000000
   C     87.10000000    74.04000000    41.23000000
   O     86.76000000    75.24000000    41.78000000
   H     85.80000000    69.57000000    37.91000000
   H     88.33000000    70.89000000    37.35000000
   H     89.00000000    70.03000000    39.45000000
   H     87.36000000    69.49000000    39.83000000
   H     89.49000000    72.58000000    39.36000000
   H     85.87000000    70.90000000    40.90000000
   H     89.09000000    74.69000000    40.71000000
   H     85.35000000    73.02000000    41.94000000
   H     85.93000000    75.05000000    42.21000000
   N     89.35000000    68.69000000    36.82000000
   C     90.12000000    67.49000000    36.55000000
   C     91.15000000    67.24000000    37.64000000
   O     92.03000000    68.08000000    37.80000000
   C     90.75000000    67.46000000    35.16000000
   C     89.75000000    67.61000000    34.02000000
   C     91.57000000    66.21000000    34.84000000
   C     90.29000000    67.86000000    32.61000000
   H     89.79000000    69.56000000    36.57000000
   H     89.47000000    66.62000000    36.58000000
   H     91.40000000    68.33000000    35.07000000
   H     89.06000000    68.42000000    34.25000000
   H     89.21000000    66.68000000    33.84000000
   H     90.93000000    65.33000000    34.86000000
   H     91.89000000    66.28000000    33.80000000
   H     92.39000000    66.14000000    35.56000000
   H     90.89000000    67.07000000    32.17000000
   H     89.47000000    67.85000000    31.89000000
   H     90.91000000    68.76000000    32.61000000
   N     91.19000000    66.07000000    38.27000000
   C     92.31000000    65.50000000    38.98000000
   C     93.09000000    64.48000000    38.16000000
   O     92.60000000    63.93000000    37.19000000
   C     91.79000000    64.96000000    40.32000000
   O     90.98000000    63.83000000    40.08000000
   H     90.34000000    65.51000000    38.20000000
   H     93.00000000    66.33000000    39.15000000
   H     91.26000000    65.70000000    40.92000000
   H     92.72000000    64.69000000    40.82000000
   H     90.13000000    64.13000000    39.76000000
   N     94.38000000    64.31000000    38.47000000
   C     95.34000000    63.49000000    37.76000000
   C     94.89000000    62.07000000    37.46000000
   O     95.10000000    61.53000000    36.38000000
   C     96.65000000    63.50000000    38.55000000
   H     94.70000000    64.68000000    39.36000000
   H     95.56000000    63.96000000    36.80000000
   H     96.42000000    62.87000000    39.41000000
   H     97.48000000    63.09000000    37.97000000
   H     96.88000000    64.48000000    38.96000000
   N     94.14000000    61.46000000    38.39000000
   C     93.52000000    60.16000000    38.20000000
   C     92.42000000    60.15000000    37.15000000
   O     92.27000000    59.16000000    36.44000000
   C     92.96000000    59.58000000    39.49000000
   H     93.99000000    61.95000000    39.26000000
   H     94.28000000    59.47000000    37.83000000
   H     93.74000000    59.55000000    40.24000000
   H     92.14000000    60.21000000    39.85000000
   H     92.47000000    58.65000000    39.24000000
   N     91.66000000    61.24000000    37.05000000
   C     90.61000000    61.43000000    36.07000000
   C     91.24000000    61.60000000    34.69000000
   O     90.70000000    61.02000000    33.75000000
   C     89.65000000    62.58000000    36.37000000
   C     88.93000000    62.47000000    37.72000000
   C     88.24000000    63.80000000    37.99000000
   O     88.77000000    64.73000000    38.63000000
   O     87.09000000    64.01000000    37.53000000
   H     91.78000000    61.92000000    37.79000000
   H     90.00000000    60.54000000    35.96000000
   H     88.89000000    62.51000000    35.59000000
   H     90.10000000    63.56000000    36.28000000
   H     89.64000000    62.32000000    38.53000000
   H     88.29000000    61.60000000    37.82000000
   N     92.37000000    62.30000000    34.53000000
   C     92.94000000    62.42000000    33.21000000
   H     93.95800000    62.03100000    33.21800000
   H     92.33900000    61.85000000    32.50100000
   H     92.95500000    63.46900000    32.91400000
   H     92.65000000    62.72000000    35.41000000
  Ca     86.13000000    66.06000000    38.92000000
   O     86.31000000    64.17000000    40.78000000
   H     85.69000000    64.29000000    41.50000000
   H     86.80000000    63.38000000    41.01000000

Ca 1.70



