%chk=CaMKII_loop3_56.0.chk
%nprocshared=48
%mem=10GB
%nosave
#b3lyp/svp scf=(tight,noincore) Test 
#IOP(5/87=12) Density=Current Pop=(MK,readradii) iop(6/33=2) iop(6/42=6)

CaMKII_loop3_56.0 

   0   1
   C     75.52000000    41.35000000    24.24000000
   C     74.35000000    40.59000000    24.83000000
   O     74.32000000    39.36000000    24.87000000
   H     76.38600000    40.69100000    24.17800000
   H     75.25900000    41.70200000    23.24200000
   H     75.75800000    42.20300000    24.87600000
   N     73.33000000    41.33000000    25.26000000
   C     72.00000000    40.86000000    25.58000000
   C     71.29000000    40.46000000    24.29000000
   O     70.40000000    41.14000000    23.80000000
   C     71.12000000    41.77000000    26.43000000
   C     69.85000000    41.10000000    26.94000000
   O     69.62000000    39.90000000    26.70000000
   O     69.03000000    41.87000000    27.48000000
   H     73.45000000    42.33000000    25.31000000
   H     72.18000000    39.99000000    26.22000000
   H     70.83000000    42.68000000    25.90000000
   H     71.70000000    42.00000000    27.32000000
   N     71.52000000    39.21000000    23.88000000
   C     71.08000000    38.71000000    22.59000000
   C     69.66000000    38.21000000    22.38000000
   O     69.23000000    37.85000000    21.28000000
   C     72.13000000    37.83000000    21.91000000
   C     72.20000000    37.87000000    20.39000000
   C     73.05000000    36.76000000    19.77000000
   C     73.38000000    36.90000000    18.29000000
   N     72.11000000    36.85000000    17.54000000
   H     72.24000000    38.69000000    24.37000000
   H     71.09000000    39.67000000    22.06000000
   H     72.03000000    36.78000000    22.16000000
   H     73.07000000    38.17000000    22.35000000
   H     72.67000000    38.84000000    20.20000000
   H     71.21000000    37.84000000    19.94000000
   H     72.49000000    35.83000000    19.93000000
   H     73.97000000    36.74000000    20.35000000
   H     74.07000000    36.11000000    18.01000000
   H     73.81000000    37.88000000    18.07000000
   H     72.27000000    36.54000000    16.59000000
   H     71.43000000    36.14000000    17.75000000
   H     71.60000000    37.71000000    17.44000000
   N     68.87000000    38.37000000    23.44000000
   C     67.45000000    38.09000000    23.56000000
   C     66.69000000    39.34000000    23.99000000
   O     65.63000000    39.62000000    23.44000000
   C     67.18000000    36.89000000    24.47000000
   C     67.94000000    36.98000000    25.79000000
   O     67.48000000    37.73000000    26.68000000
   O     69.09000000    36.53000000    25.97000000
   H     69.27000000    38.70000000    24.30000000
   H     67.01000000    37.87000000    22.59000000
   H     67.62000000    36.03000000    23.96000000
   H     66.14000000    36.72000000    24.74000000
   N     67.16000000    40.08000000    24.99000000
   C     66.53000000    41.28000000    25.50000000
   C     65.87000000    41.13000000    26.87000000
   O     65.03000000    41.97000000    27.21000000
   H     67.91000000    39.80000000    25.60000000
   H     65.80000000    41.72000000    24.83000000
   H     67.28000000    42.04000000    25.74000000
   N     66.22000000    40.14000000    27.69000000
   C     65.81000000    40.00000000    29.07000000
   C     66.41000000    41.03000000    30.02000000
   O     66.11000000    40.98000000    31.21000000
   C     66.01000000    38.59000000    29.62000000
   C     67.45000000    38.36000000    30.05000000
   N     67.60000000    37.55000000    31.11000000
   O     68.38000000    38.86000000    29.42000000
   H     66.97000000    39.48000000    27.49000000
   H     64.72000000    40.05000000    29.15000000
   H     65.76000000    37.80000000    28.91000000
   H     65.31000000    38.49000000    30.45000000
   H     66.85000000    37.10000000    31.60000000
   H     68.57000000    37.38000000    31.35000000
   N     67.22000000    41.94000000    29.48000000
   C     67.94000000    42.99000000    30.18000000
   C     69.13000000    42.48000000    30.98000000
   O     69.54000000    43.16000000    31.91000000
   H     67.46000000    41.94000000    28.50000000
   H     67.26000000    43.52000000    30.85000000
   H     68.27000000    43.76000000    29.48000000
   N     69.77000000    41.36000000    30.64000000
   C     71.03000000    40.90000000    31.19000000
   C     71.94000000    40.27000000    30.15000000
   O     71.51000000    39.66000000    29.17000000
   C     70.82000000    39.91000000    32.33000000
   C     69.85000000    40.38000000    33.38000000
   C     70.28000000    40.99000000    34.57000000
   C     68.48000000    40.12000000    33.31000000
   C     69.42000000    41.31000000    35.63000000
   C     67.55000000    40.48000000    34.29000000
   C     68.04000000    41.08000000    35.47000000
   O     67.10000000    41.47000000    36.38000000
   H     69.48000000    40.89000000    29.79000000
   H     71.46000000    41.79000000    31.66000000
   H     71.73000000    39.53000000    32.79000000
   H     70.28000000    39.07000000    31.88000000
   H     71.33000000    41.09000000    34.78000000
   H     68.08000000    39.62000000    32.43000000
   H     69.73000000    41.80000000    36.54000000
   H     66.49000000    40.30000000    34.24000000
   H     66.22000000    41.13000000    36.24000000
   N     73.24000000    40.35000000    30.45000000
   C     74.38000000    39.74000000    29.80000000
   C     74.88000000    38.67000000    30.76000000
   O     75.33000000    38.99000000    31.85000000
   C     75.44000000    40.82000000    29.56000000
   C     74.97000000    42.10000000    28.88000000
   C     76.63000000    40.24000000    28.82000000
   C     76.00000000    43.20000000    28.63000000
   H     73.49000000    40.71000000    31.36000000
   H     74.15000000    39.34000000    28.81000000
   H     75.89000000    41.24000000    30.47000000
   H     74.14000000    42.60000000    29.38000000
   H     74.54000000    41.89000000    27.90000000
   H     77.50000000    40.89000000    28.84000000
   H     76.87000000    39.24000000    29.19000000
   H     76.30000000    40.25000000    27.78000000
   H     76.25000000    43.73000000    29.55000000
   H     76.84000000    42.80000000    28.07000000
   H     75.39000000    43.92000000    28.08000000
   N     74.89000000    37.40000000    30.35000000
   C     75.45000000    36.23000000    31.00000000
   C     76.91000000    36.02000000    30.61000000
   O     77.41000000    36.65000000    29.67000000
   C     74.61000000    34.97000000    30.83000000
   O     74.66000000    34.67000000    29.45000000
   H     74.36000000    37.26000000    29.50000000
   H     75.55000000    36.50000000    32.05000000
   H     73.60000000    35.09000000    31.21000000
   H     74.91000000    34.11000000    31.43000000
   H     73.91000000    35.06000000    29.00000000
   N     77.58000000    35.05000000    31.23000000
   C     78.96000000    34.76000000    30.90000000
   C     79.04000000    34.08000000    29.54000000
   O     79.90000000    34.38000000    28.72000000
   C     79.44000000    33.76000000    31.95000000
   H     77.22000000    34.57000000    32.04000000
   H     79.47000000    35.72000000    30.89000000
   H     80.49000000    33.57000000    31.75000000
   H     79.22000000    34.17000000    32.94000000
   H     78.92000000    32.81000000    31.87000000
   N     78.14000000    33.16000000    29.15000000
   C     77.98000000    32.74000000    27.77000000
   C     77.73000000    33.84000000    26.75000000
   O     78.40000000    33.84000000    25.72000000
   C     76.94000000    31.63000000    27.73000000
   H     77.34000000    33.03000000    29.75000000
   H     78.98000000    32.37000000    27.55000000
   H     76.78000000    31.14000000    26.77000000
   H     77.09000000    30.86000000    28.48000000
   H     75.97000000    32.04000000    28.01000000
   N     76.94000000    34.85000000    27.11000000
   C     76.71000000    35.97000000    26.22000000
   C     77.83000000    37.00000000    26.13000000
   O     78.07000000    37.58000000    25.07000000
   C     75.41000000    36.66000000    26.61000000
   C     74.17000000    35.89000000    26.17000000
   C     72.99000000    36.45000000    26.96000000
   O     72.64000000    35.86000000    28.01000000
   O     72.35000000    37.45000000    26.59000000
   H     76.34000000    34.71000000    27.91000000
   H     76.68000000    35.61000000    25.20000000
   H     75.37000000    37.66000000    26.18000000
   H     75.44000000    36.86000000    27.68000000
   H     74.24000000    34.83000000    26.41000000
   H     73.92000000    35.98000000    25.11000000
   N     78.63000000    37.16000000    27.18000000
   C     79.94000000    37.80000000    27.20000000
   H     80.65600000    37.17800000    26.66300000
   H     79.87600000    38.77600000    26.71900000
   H     80.26900000    37.92400000    28.23200000
   H     78.27000000    36.79000000    28.05000000
  Ca     70.29000000    37.64000000    27.97000000
   O     71.24000000    37.00000000    30.48000000
   H     71.84000000    37.19000000    31.20000000
   H     70.73000000    36.25000000    30.79000000

Ca 1.70



