%chk=CaMKII_loop3_55.0.chk
%nprocshared=48
%mem=10GB
%nosave
#b3lyp/svp scf=(tight,noincore) Test 
#IOP(5/87=12) Density=Current Pop=(MK,readradii) iop(6/33=2) iop(6/42=6)

CaMKII_loop3_55.0 

   0   1
   C     82.42000000    41.63000000    25.83000000
   C     82.25000000    40.31000000    26.57000000
   O     82.55000000    39.20000000    26.12000000
   H     83.43700000    41.70200000    25.44600000
   H     81.71500000    41.67600000    25.00000000
   H     82.23100000    42.45800000    26.51400000
   N     81.57000000    40.39000000    27.72000000
   C     81.31000000    39.26000000    28.59000000
   C     79.95000000    38.60000000    28.47000000
   O     79.06000000    38.68000000    29.32000000
   C     81.55000000    39.59000000    30.06000000
   C     81.47000000    38.41000000    31.01000000
   O     81.66000000    37.32000000    30.45000000
   O     81.13000000    38.54000000    32.21000000
   H     81.49000000    41.25000000    28.24000000
   H     81.98000000    38.43000000    28.35000000
   H     80.91000000    40.41000000    30.38000000
   H     82.58000000    39.94000000    30.15000000
   N     79.78000000    37.87000000    27.36000000
   C     78.51000000    37.31000000    26.96000000
   C     78.10000000    36.19000000    27.90000000
   O     76.91000000    35.99000000    28.17000000
   C     78.54000000    36.82000000    25.51000000
   C     78.89000000    37.97000000    24.56000000
   C     78.80000000    37.51000000    23.11000000
   C     78.83000000    38.65000000    22.09000000
   N     80.14000000    39.32000000    22.12000000
   H     80.67000000    37.67000000    26.92000000
   H     77.68000000    38.02000000    27.00000000
   H     77.66000000    36.28000000    25.19000000
   H     79.40000000    36.18000000    25.29000000
   H     79.88000000    38.37000000    24.76000000
   H     78.20000000    38.78000000    24.81000000
   H     77.84000000    37.02000000    22.95000000
   H     79.58000000    36.81000000    22.80000000
   H     78.01000000    39.36000000    22.19000000
   H     78.62000000    38.22000000    21.11000000
   H     80.09000000    40.13000000    21.53000000
   H     80.49000000    39.59000000    23.03000000
   H     80.89000000    38.77000000    21.72000000
   N     79.08000000    35.43000000    28.38000000
   C     78.86000000    34.28000000    29.23000000
   C     78.68000000    34.64000000    30.70000000
   O     78.13000000    33.93000000    31.54000000
   C     80.08000000    33.36000000    29.18000000
   C     81.38000000    34.08000000    29.53000000
   O     81.98000000    34.02000000    30.62000000
   O     81.98000000    34.64000000    28.59000000
   H     80.00000000    35.63000000    28.01000000
   H     77.95000000    33.72000000    29.01000000
   H     80.25000000    32.95000000    28.19000000
   H     80.04000000    32.51000000    29.87000000
   N     78.97000000    35.91000000    31.00000000
   C     78.59000000    36.56000000    32.23000000
   C     79.19000000    36.12000000    33.56000000
   O     78.66000000    36.37000000    34.64000000
   H     79.65000000    36.41000000    30.43000000
   H     77.52000000    36.39000000    32.20000000
   H     78.68000000    37.65000000    32.22000000
   N     80.38000000    35.53000000    33.43000000
   C     81.22000000    35.02000000    34.50000000
   C     81.79000000    36.13000000    35.37000000
   O     82.43000000    35.87000000    36.39000000
   C     82.25000000    34.11000000    33.83000000
   C     83.59000000    34.70000000    33.42000000
   N     84.80000000    34.17000000    33.62000000
   O     83.58000000    35.78000000    32.84000000
   H     80.89000000    35.49000000    32.56000000
   H     80.56000000    34.46000000    35.16000000
   H     81.84000000    33.54000000    32.99000000
   H     82.53000000    33.32000000    34.53000000
   H     84.85000000    33.48000000    34.36000000
   H     85.62000000    34.69000000    33.36000000
   N     81.69000000    37.39000000    34.97000000
   C     82.25000000    38.52000000    35.68000000
   C     83.60000000    38.96000000    35.15000000
   O     84.16000000    39.86000000    35.78000000
   H     81.25000000    37.56000000    34.07000000
   H     82.34000000    38.21000000    36.72000000
   H     81.56000000    39.36000000    35.67000000
   N     84.13000000    38.40000000    34.06000000
   C     85.35000000    38.92000000    33.48000000
   C     85.34000000    39.04000000    31.96000000
   O     84.49000000    38.44000000    31.32000000
   C     86.58000000    38.14000000    33.94000000
   C     86.83000000    37.96000000    35.41000000
   C     87.83000000    38.76000000    35.98000000
   C     86.28000000    36.92000000    36.17000000
   C     88.25000000    38.55000000    37.30000000
   C     86.66000000    36.65000000    37.49000000
   C     87.63000000    37.51000000    38.03000000
   O     88.00000000    37.38000000    39.34000000
   H     83.64000000    37.59000000    33.70000000
   H     85.57000000    39.88000000    33.94000000
   H     87.55000000    38.46000000    33.56000000
   H     86.45000000    37.13000000    33.54000000
   H     88.24000000    39.56000000    35.39000000
   H     85.45000000    36.31000000    35.84000000
   H     88.94000000    39.20000000    37.82000000
   H     86.20000000    35.83000000    38.02000000
   H     87.41000000    36.79000000    39.81000000
   N     86.43000000    39.57000000    31.41000000
   C     86.65000000    39.63000000    29.98000000
   C     88.06000000    39.11000000    29.75000000
   O     89.01000000    39.75000000    30.20000000
   C     86.58000000    41.09000000    29.53000000
   C     85.18000000    41.69000000    29.62000000
   C     87.01000000    41.36000000    28.09000000
   C     85.12000000    43.21000000    29.52000000
   H     86.96000000    40.19000000    32.00000000
   H     85.96000000    39.01000000    29.41000000
   H     87.28000000    41.58000000    30.21000000
   H     84.84000000    41.46000000    30.63000000
   H     84.47000000    41.37000000    28.85000000
   H     86.94000000    42.43000000    27.90000000
   H     87.99000000    41.00000000    27.82000000
   H     86.33000000    40.83000000    27.42000000
   H     84.19000000    43.56000000    29.97000000
   H     85.93000000    43.73000000    30.04000000
   H     85.09000000    43.46000000    28.46000000
   N     88.25000000    38.09000000    28.92000000
   C     89.46000000    37.47000000    28.42000000
   C     89.87000000    37.96000000    27.03000000
   O     89.01000000    38.29000000    26.22000000
   C     89.39000000    35.95000000    28.53000000
   O     88.75000000    35.56000000    29.72000000
   H     87.44000000    37.53000000    28.67000000
   H     90.22000000    37.87000000    29.10000000
   H     90.39000000    35.53000000    28.54000000
   H     88.93000000    35.61000000    27.61000000
   H     89.20000000    34.79000000    30.06000000
   N     91.15000000    37.91000000    26.65000000
   C     91.58000000    38.53000000    25.41000000
   C     90.78000000    38.23000000    24.16000000
   O     90.38000000    39.10000000    23.39000000
   C     93.03000000    38.17000000    25.08000000
   H     91.86000000    37.59000000    27.29000000
   H     91.48000000    39.61000000    25.53000000
   H     93.78000000    38.36000000    25.85000000
   H     93.16000000    37.13000000    24.79000000
   H     93.37000000    38.67000000    24.17000000
   N     90.52000000    36.94000000    23.89000000
   C     89.70000000    36.47000000    22.79000000
   C     88.23000000    36.87000000    22.83000000
   O     87.61000000    36.91000000    21.77000000
   C     90.02000000    35.00000000    22.58000000
   H     90.89000000    36.25000000    24.52000000
   H     90.14000000    37.00000000    21.95000000
   H     89.78000000    34.73000000    21.55000000
   H     91.01000000    34.68000000    22.90000000
   H     89.30000000    34.49000000    23.21000000
   N     87.66000000    37.29000000    23.96000000
   C     86.33000000    37.87000000    24.03000000
   C     86.31000000    39.31000000    23.55000000
   O     85.44000000    39.79000000    22.82000000
   C     85.84000000    37.83000000    25.48000000
   C     85.89000000    36.50000000    26.23000000
   C     85.18000000    36.74000000    27.55000000
   O     83.96000000    37.04000000    27.64000000
   O     85.80000000    36.40000000    28.58000000
   H     88.26000000    37.34000000    24.77000000
   H     85.69000000    37.30000000    23.36000000
   H     84.76000000    37.99000000    25.38000000
   H     86.37000000    38.58000000    26.07000000
   H     86.92000000    36.16000000    26.36000000
   H     85.32000000    35.72000000    25.73000000
   N     87.30000000    40.09000000    24.00000000
   C     87.51000000    41.44000000    23.52000000
   H     88.49900000    41.51400000    23.06800000
   H     86.75200000    41.68400000    22.77600000
   H     87.43900000    42.13800000    24.35400000
   H     87.99000000    39.64000000    24.59000000
  Ca     83.76000000    36.02000000    30.14000000
   O     86.30000000    35.85000000    31.15000000
   H     87.18000000    35.86000000    31.53000000
   H     86.42000000    36.16000000    30.25000000

Ca 1.70



