%chk=CaMKII_loop3_49.0.chk
%nprocshared=48
%mem=10GB
%nosave
#b3lyp/svp scf=(tight,noincore) Test 
#IOP(5/87=12) Density=Current Pop=(MK,readradii) iop(6/33=2) iop(6/42=6)

CaMKII_loop3_49.0 

   0   1
   C     81.34000000    44.47000000    33.19000000
   C     80.77000000    44.16000000    34.57000000
   O     80.94000000    43.01000000    34.98000000
   H     82.36000000    44.09200000    33.12600000
   H     80.72700000    43.99000000    32.42700000
   H     81.34200000    45.54800000    33.03100000
   N     80.02000000    45.04000000    35.23000000
   C     79.36000000    44.71000000    36.48000000
   C     78.12000000    43.88000000    36.16000000
   O     76.98000000    44.32000000    36.26000000
   C     79.10000000    46.03000000    37.20000000
   C     78.42000000    45.72000000    38.52000000
   O     78.80000000    44.73000000    39.19000000
   O     77.60000000    46.53000000    39.01000000
   H     79.95000000    46.01000000    34.96000000
   H     80.03000000    44.03000000    37.01000000
   H     78.37000000    46.68000000    36.71000000
   H     80.03000000    46.58000000    37.36000000
   N     78.31000000    42.64000000    35.71000000
   C     77.23000000    41.77000000    35.27000000
   C     76.33000000    41.44000000    36.46000000
   O     75.11000000    41.46000000    36.37000000
   C     77.83000000    40.51000000    34.66000000
   C     78.28000000    40.65000000    33.21000000
   C     78.84000000    39.32000000    32.70000000
   C     79.12000000    39.37000000    31.21000000
   N     80.17000000    40.37000000    30.94000000
   H     79.24000000    42.27000000    35.80000000
   H     76.62000000    42.24000000    34.51000000
   H     77.02000000    39.79000000    34.68000000
   H     78.67000000    40.11000000    35.24000000
   H     79.07000000    41.40000000    33.18000000
   H     77.32000000    40.81000000    32.71000000
   H     78.04000000    38.59000000    32.81000000
   H     79.74000000    39.11000000    33.29000000
   H     78.21000000    39.59000000    30.65000000
   H     79.49000000    38.41000000    30.86000000
   H     80.44000000    40.50000000    29.97000000
   H     79.76000000    41.27000000    31.14000000
   H     81.05000000    40.31000000    31.42000000
   N     77.03000000    41.12000000    37.55000000
   C     76.35000000    40.87000000    38.80000000
   C     75.58000000    42.05000000    39.38000000
   O     74.57000000    41.74000000    40.01000000
   C     77.29000000    40.37000000    39.89000000
   C     78.61000000    41.10000000    40.09000000
   O     78.99000000    41.39000000    41.24000000
   O     79.23000000    41.38000000    39.04000000
   H     78.04000000    41.21000000    37.49000000
   H     75.63000000    40.06000000    38.71000000
   H     77.52000000    39.33000000    39.64000000
   H     76.77000000    40.28000000    40.85000000
   N     75.83000000    43.35000000    39.15000000
   C     75.14000000    44.52000000    39.63000000
   C     75.52000000    44.91000000    41.05000000
   O     74.69000000    45.37000000    41.83000000
   H     76.70000000    43.55000000    38.69000000
   H     74.06000000    44.38000000    39.62000000
   H     75.22000000    45.35000000    38.93000000
   N     76.67000000    44.51000000    41.60000000
   C     77.07000000    44.93000000    42.93000000
   C     77.71000000    46.31000000    42.81000000
   O     77.98000000    46.88000000    43.86000000
   C     77.98000000    43.87000000    43.53000000
   C     79.46000000    44.03000000    43.22000000
   N     80.33000000    43.93000000    44.23000000
   O     79.81000000    44.43000000    42.11000000
   H     77.47000000    44.36000000    41.00000000
   H     76.26000000    44.98000000    43.66000000
   H     77.58000000    42.87000000    43.34000000
   H     77.91000000    43.99000000    44.61000000
   H     79.99000000    43.34000000    44.97000000
   H     81.29000000    44.23000000    44.14000000
   N     77.86000000    46.95000000    41.65000000
   C     78.12000000    48.38000000    41.57000000
   C     79.62000000    48.63000000    41.58000000
   O     80.01000000    49.69000000    42.07000000
   H     77.76000000    46.42000000    40.80000000
   H     77.64000000    49.04000000    42.29000000
   H     77.88000000    48.68000000    40.55000000
   N     80.37000000    47.69000000    40.98000000
   C     81.81000000    47.81000000    40.88000000
   C     82.36000000    46.91000000    39.78000000
   O     81.74000000    45.89000000    39.46000000
   C     82.56000000    47.41000000    42.15000000
   C     82.50000000    48.27000000    43.39000000
   C     83.25000000    49.44000000    43.57000000
   C     81.74000000    47.83000000    44.47000000
   C     83.28000000    50.12000000    44.80000000
   C     81.67000000    48.50000000    45.70000000
   C     82.43000000    49.68000000    45.84000000
   O     82.42000000    50.33000000    47.03000000
   H     79.99000000    46.78000000    40.75000000
   H     82.17000000    48.81000000    40.67000000
   H     83.63000000    47.34000000    41.94000000
   H     82.20000000    46.40000000    42.38000000
   H     83.99000000    49.74000000    42.84000000
   H     81.15000000    46.93000000    44.47000000
   H     83.84000000    51.02000000    44.99000000
   H     80.98000000    48.19000000    46.47000000
   H     81.96000000    49.80000000    47.69000000
   N     83.49000000    47.29000000    39.19000000
   C     84.45000000    46.56000000    38.38000000
   C     85.66000000    46.24000000    39.25000000
   O     86.17000000    47.15000000    39.90000000
   C     84.79000000    47.33000000    37.11000000
   C     83.52000000    47.45000000    36.27000000
   C     86.01000000    46.80000000    36.37000000
   C     83.82000000    48.18000000    34.96000000
   H     83.98000000    48.09000000    39.58000000
   H     83.91000000    45.67000000    38.03000000
   H     85.04000000    48.35000000    37.38000000
   H     82.72000000    47.96000000    36.81000000
   H     83.16000000    46.46000000    35.99000000
   H     86.32000000    47.50000000    35.60000000
   H     86.89000000    46.67000000    37.00000000
   H     85.78000000    45.83000000    35.93000000
   H     84.36000000    47.59000000    34.22000000
   H     82.94000000    48.40000000    34.36000000
   H     84.41000000    49.05000000    35.23000000
   N     85.99000000    44.95000000    39.24000000
   C     87.25000000    44.41000000    39.71000000
   C     88.09000000    43.81000000    38.60000000
   O     87.49000000    43.46000000    37.58000000
   C     86.91000000    43.36000000    40.77000000
   O     85.92000000    42.40000000    40.48000000
   H     85.49000000    44.38000000    38.57000000
   H     87.91000000    45.14000000    40.19000000
   H     86.63000000    43.85000000    41.70000000
   H     87.83000000    42.84000000    41.02000000
   H     85.23000000    42.83000000    39.97000000
   N     89.41000000    43.67000000    38.69000000
   C     90.28000000    43.01000000    37.74000000
   C     89.78000000    41.80000000    36.97000000
   O     89.82000000    41.88000000    35.74000000
   C     91.63000000    42.69000000    38.36000000
   H     89.88000000    44.15000000    39.45000000
   H     90.47000000    43.85000000    37.06000000
   H     91.49000000    42.11000000    39.27000000
   H     92.33000000    42.14000000    37.72000000
   H     92.12000000    43.61000000    38.70000000
   N     89.16000000    40.82000000    37.62000000
   C     88.65000000    39.66000000    36.92000000
   C     87.52000000    39.90000000    35.93000000
   O     87.68000000    39.46000000    34.79000000
   C     88.14000000    38.63000000    37.93000000
   H     89.24000000    40.88000000    38.63000000
   H     89.54000000    39.31000000    36.41000000
   H     88.93000000    38.19000000    38.53000000
   H     87.35000000    39.01000000    38.59000000
   H     87.72000000    37.76000000    37.42000000
   N     86.52000000    40.72000000    36.23000000
   C     85.41000000    41.11000000    35.37000000
   C     85.79000000    42.26000000    34.46000000
   O     85.20000000    42.42000000    33.40000000
   C     84.17000000    41.36000000    36.21000000
   C     84.36000000    42.58000000    37.10000000
   C     83.25000000    42.79000000    38.13000000
   O     83.56000000    43.09000000    39.30000000
   O     82.05000000    42.62000000    37.80000000
   H     86.49000000    41.08000000    37.18000000
   H     85.21000000    40.28000000    34.69000000
   H     83.89000000    40.47000000    36.77000000
   H     83.30000000    41.59000000    35.59000000
   H     84.42000000    43.49000000    36.50000000
   H     85.18000000    42.39000000    37.79000000
   N     86.89000000    42.99000000    34.69000000
   C     87.45000000    43.85000000    33.67000000
   H     88.45900000    43.51600000    33.42700000
   H     86.82800000    43.80600000    32.77600000
   H     87.48600000    44.87500000    34.03800000
   H     87.35000000    42.90000000    35.58000000
  Ca     80.90000000    43.19000000    40.09000000
   O     82.58000000    43.84000000    42.08000000
   H     83.44000000    44.24000000    42.20000000
   H     82.52000000    43.18000000    42.76000000

Ca 1.70



