%chk=CaMKII_loop3_30.0.chk
%nprocshared=48
%mem=10GB
%nosave
#b3lyp/svp scf=(tight,noincore) Test 
#IOP(5/87=12) Density=Current Pop=(MK,readradii) iop(6/33=2) iop(6/42=6)

CaMKII_loop3_30.0 

   0   1
   C     79.34000000    54.08000000    32.52000000
   C     78.35000000    53.58000000    33.56000000
   O     78.44000000    52.38000000    33.81000000
   H     80.28600000    53.55000000    32.63500000
   H     78.94200000    53.89900000    31.52200000
   H     79.50400000    55.14900000    32.65800000
   N     77.56000000    54.41000000    34.24000000
   C     76.58000000    53.95000000    35.21000000
   C     75.51000000    53.10000000    34.55000000
   O     74.47000000    53.59000000    34.10000000
   C     75.89000000    55.13000000    35.90000000
   C     75.07000000    54.75000000    37.13000000
   O     75.15000000    53.58000000    37.56000000
   O     74.50000000    55.72000000    37.68000000
   H     77.68000000    55.37000000    33.96000000
   H     77.17000000    53.40000000    35.94000000
   H     75.17000000    55.64000000    35.27000000
   H     76.66000000    55.79000000    36.29000000
   N     75.86000000    51.81000000    34.54000000
   C     75.21000000    50.77000000    33.76000000
   C     73.80000000    50.45000000    34.24000000
   O     73.01000000    49.88000000    33.50000000
   C     76.07000000    49.51000000    33.86000000
   C     75.73000000    48.28000000    33.03000000
   C     76.63000000    47.05000000    33.18000000
   C     76.09000000    45.85000000    32.42000000
   N     74.68000000    45.50000000    32.67000000
   H     76.68000000    51.59000000    35.07000000
   H     75.23000000    51.06000000    32.71000000
   H     76.05000000    49.15000000    34.89000000
   H     77.08000000    49.80000000    33.59000000
   H     75.77000000    48.54000000    31.97000000
   H     74.70000000    48.04000000    33.30000000
   H     76.64000000    46.94000000    34.27000000
   H     77.64000000    47.30000000    32.87000000
   H     76.64000000    44.98000000    32.77000000
   H     76.25000000    46.09000000    31.36000000
   H     74.60000000    45.19000000    33.63000000
   H     74.01000000    46.25000000    32.64000000
   H     74.43000000    44.74000000    32.05000000
   N     73.50000000    50.66000000    35.52000000
   C     72.21000000    50.40000000    36.13000000
   C     71.42000000    51.67000000    36.42000000
   O     70.24000000    51.62000000    36.77000000
   C     72.42000000    49.70000000    37.47000000
   C     73.22000000    50.42000000    38.54000000
   O     74.47000000    50.38000000    38.62000000
   O     72.54000000    51.08000000    39.35000000
   H     74.18000000    51.14000000    36.11000000
   H     71.61000000    49.89000000    35.38000000
   H     72.96000000    48.78000000    37.25000000
   H     71.45000000    49.54000000    37.94000000
   N     72.01000000    52.85000000    36.25000000
   C     71.44000000    54.09000000    36.76000000
   C     71.15000000    54.25000000    38.24000000
   O     70.10000000    53.79000000    38.70000000
   H     72.91000000    52.94000000    35.81000000
   H     70.53000000    54.25000000    36.19000000
   H     72.12000000    54.90000000    36.51000000
   N     72.14000000    54.71000000    39.00000000
   C     72.02000000    55.15000000    40.38000000
   C     72.76000000    56.43000000    40.74000000
   O     72.67000000    56.92000000    41.86000000
   C     72.41000000    53.98000000    41.27000000
   C     73.92000000    53.95000000    41.47000000
   N     74.37000000    54.01000000    42.73000000
   O     74.69000000    53.93000000    40.52000000
   H     73.00000000    55.02000000    38.58000000
   H     70.98000000    55.35000000    40.66000000
   H     72.11000000    53.01000000    40.87000000
   H     71.96000000    54.19000000    42.24000000
   H     73.71000000    54.03000000    43.49000000
   H     75.34000000    53.77000000    42.89000000
   N     73.50000000    57.06000000    39.82000000
   C     74.26000000    58.28000000    39.98000000
   C     75.72000000    57.98000000    40.27000000
   O     76.54000000    58.89000000    40.40000000
   H     73.61000000    56.64000000    38.91000000
   H     73.77000000    58.86000000    40.76000000
   H     74.12000000    58.78000000    39.01000000
   N     76.15000000    56.72000000    40.34000000
   C     77.48000000    56.40000000    40.81000000
   C     78.13000000    55.33000000    39.95000000
   O     77.46000000    54.37000000    39.57000000
   C     77.47000000    55.97000000    42.28000000
   C     77.17000000    57.10000000    43.23000000
   C     78.24000000    57.74000000    43.87000000
   C     75.83000000    57.40000000    43.50000000
   C     77.95000000    58.73000000    44.81000000
   C     75.53000000    58.27000000    44.56000000
   C     76.60000000    58.98000000    45.14000000
   O     76.33000000    59.84000000    46.16000000
   H     75.52000000    55.99000000    40.07000000
   H     78.06000000    57.33000000    40.79000000
   H     78.43000000    55.46000000    42.38000000
   H     76.68000000    55.24000000    42.46000000
   H     79.21000000    57.45000000    43.51000000
   H     75.06000000    56.85000000    42.98000000
   H     78.80000000    59.26000000    45.22000000
   H     74.51000000    58.45000000    44.86000000
   H     75.40000000    59.88000000    46.41000000
   N     79.42000000    55.55000000    39.67000000
   C     80.22000000    54.57000000    38.96000000
   C     81.06000000    53.80000000    39.97000000
   O     81.84000000    54.40000000    40.70000000
   C     81.09000000    55.17000000    37.86000000
   C     80.42000000    56.13000000    36.89000000
   C     81.85000000    54.14000000    37.03000000
   C     81.23000000    56.79000000    35.78000000
   H     79.84000000    56.43000000    39.92000000
   H     79.52000000    53.86000000    38.51000000
   H     81.89000000    55.79000000    38.28000000
   H     79.94000000    56.99000000    37.37000000
   H     79.69000000    55.59000000    36.29000000
   H     81.10000000    53.75000000    36.34000000
   H     82.74000000    54.56000000    36.55000000
   H     82.22000000    53.31000000    37.63000000
   H     82.01000000    57.42000000    36.20000000
   H     81.86000000    56.08000000    35.24000000
   H     80.55000000    57.25000000    35.06000000
   N     80.95000000    52.47000000    39.88000000
   C     81.82000000    51.58000000    40.61000000
   C     82.85000000    50.95000000    39.68000000
   O     82.58000000    50.87000000    38.48000000
   C     80.99000000    50.50000000    41.29000000
   O     80.26000000    49.76000000    40.34000000
   H     80.24000000    52.09000000    39.27000000
   H     82.35000000    52.15000000    41.38000000
   H     80.36000000    51.04000000    42.00000000
   H     81.65000000    49.91000000    41.93000000
   H     79.57000000    50.28000000    39.92000000
   N     83.87000000    50.29000000    40.22000000
   C     84.97000000    49.85000000    39.39000000
   C     84.59000000    48.75000000    38.41000000
   O     85.11000000    48.90000000    37.30000000
   C     86.04000000    49.41000000    40.38000000
   H     83.87000000    50.25000000    41.23000000
   H     85.38000000    50.68000000    38.81000000
   H     86.86000000    48.98000000    39.81000000
   H     86.33000000    50.32000000    40.90000000
   H     85.59000000    48.58000000    40.93000000
   N     83.68000000    47.81000000    38.68000000
   C     83.20000000    46.76000000    37.80000000
   C     82.52000000    47.38000000    36.59000000
   O     82.65000000    46.91000000    35.46000000
   C     82.22000000    45.96000000    38.65000000
   H     83.43000000    47.67000000    39.65000000
   H     84.07000000    46.15000000    37.54000000
   H     81.33000000    46.54000000    38.89000000
   H     81.97000000    45.03000000    38.14000000
   H     82.70000000    45.73000000    39.60000000
   N     81.80000000    48.48000000    36.84000000
   C     81.25000000    49.24000000    35.74000000
   C     82.29000000    49.97000000    34.89000000
   O     82.18000000    49.94000000    33.67000000
   C     80.25000000    50.30000000    36.21000000
   C     79.05000000    49.72000000    36.95000000
   C     78.27000000    50.78000000    37.72000000
   O     77.12000000    51.05000000    37.31000000
   O     78.76000000    51.31000000    38.74000000
   H     81.74000000    48.78000000    37.80000000
   H     80.68000000    48.51000000    35.17000000
   H     79.98000000    50.93000000    35.36000000
   H     80.78000000    50.99000000    36.86000000
   H     79.45000000    49.02000000    37.69000000
   H     78.39000000    49.32000000    36.19000000
   N     83.25000000    50.67000000    35.50000000
   C     84.33000000    51.21000000    34.69000000
   H     85.22300000    50.60000000    34.82300000
   H     84.03700000    51.20000000    33.64000000
   H     84.54100000    52.23400000    35.00000000
   H     83.22000000    50.61000000    36.51000000
  Ca     76.15000000    52.07000000    39.46000000
   O     76.99000000    49.70000000    40.39000000
   H     77.74000000    49.13000000    40.22000000
   H     76.27000000    49.11000000    40.60000000

Ca 1.70



