%Nproc=28
%chk=holo59.0.chk
%mem=80GB
%NoSave
#MP2(semidirect)/Gen scf=(tight,noincore) Test
#IOP(5/87=12) Density=Current Pop=(MK,readradii) iop(6/33=2) iop(6/42=6)

holo_loop_3_model_59.0 

   0   1
   C     34.70000000    70.99000000    10.54000000
   C     33.52000000    70.35000000     9.82000000
   C     32.17000000    71.04000000     9.66000000
   O     31.10000000    70.59000000    10.06000000
   O     32.27000000    72.28000000     9.10000000
   H     35.31700000    70.18600000    10.94000000
   H     34.31800000    71.63500000    11.33200000
   H     35.33000000    71.59000000     9.87000000
   H     33.32000000    69.42000000    10.35000000
   H     33.86000000    70.09000000     8.82000000
   H     33.16000000    72.32000000     8.74000000
   C     33.61000000    76.45000000    12.23000000
   C     33.90000000    77.25000000    10.97000000
   C     33.94000000    76.42000000     9.70000000
   O     33.76000000    75.18000000     9.71000000
   O     34.11000000    77.06000000     8.64000000
   H     34.36200000    75.66700000    12.32100000
   H     32.61200000    76.01800000    12.15500000
   H     33.66000000    77.08000000    13.12000000
   H     34.87000000    77.74000000    11.03000000
   H     33.28000000    78.15000000    10.97000000
   C     41.35000000    73.17000000    10.24000000
   C     39.92000000    73.08000000     9.73000000
   C     39.43000000    74.51000000     9.60000000
   C     38.03000000    74.62000000     9.02000000
   O     37.82000000    73.97000000     7.97000000
   O     37.17000000    75.40000000     9.49000000
   H     42.00000000    73.62300000     9.49200000
   H     41.73300000    72.17300000    10.45700000
   H     41.33000000    73.77000000    11.15000000
   H     39.32000000    72.51000000    10.44000000
   H     39.80000000    72.51000000     8.80000000
   H     39.87000000    75.23000000     8.91000000
   H     39.43000000    74.95000000    10.60000000
  Ca     35.27000000    74.95000000     7.59000000
   O     35.39000000    75.59000000     4.91000000
   H     35.93000000    76.38000000     4.86000000
   H     35.56000000    75.13000000     4.09000000

C O H 0
aug-cc-pVTZ 
****
@/home/pzhang5/ca_ccpvtz_basisset.gbs/N

Ca 1.70




