%Nproc=28
%chk=holo34.0.chk
%mem=80GB
%NoSave
#MP2(semidirect)/Gen scf=(tight,noincore) Test
#IOP(5/87=12) Density=Current Pop=(MK,readradii) iop(6/33=2) iop(6/42=6)

holo_loop_3_model_34.0 

   0   1
   C     32.67000000    72.78000000     9.42000000
   C     31.83000000    72.39000000     8.21000000
   C     30.90000000    73.46000000     7.66000000
   O     29.67000000    73.47000000     7.75000000
   O     31.65000000    74.52000000     7.23000000
   H     33.18700000    71.91100000     9.82700000
   H     32.03100000    73.18900000    10.20300000
   H     33.38000000    73.53000000     9.09000000
   H     31.06000000    71.71000000     8.57000000
   H     32.38000000    71.94000000     7.38000000
   H     32.58000000    74.35000000     7.09000000
   C     31.65000000    77.61000000    11.54000000
   C     32.77000000    78.19000000    10.68000000
   C     32.75000000    77.55000000     9.30000000
   O     33.41000000    76.49000000     9.16000000
   O     32.20000000    78.06000000     8.30000000
   H     31.83000000    76.55600000    11.75200000
   H     30.69700000    77.68800000    11.01700000
   H     31.62000000    78.19000000    12.46000000
   H     33.70000000    78.06000000    11.24000000
   H     32.69000000    79.25000000    10.47000000
   C     39.96000000    74.46000000     9.77000000
   C     38.65000000    74.79000000     9.04000000
   C     38.30000000    76.27000000     8.92000000
   C     37.28000000    76.59000000     7.84000000
   O     36.91000000    77.78000000     7.70000000
   O     36.77000000    75.71000000     7.11000000
   H     40.77900000    74.95400000     9.24800000
   H     40.10300000    73.37900000     9.77300000
   H     39.94000000    74.82000000    10.80000000
   H     37.91000000    74.31000000     9.68000000
   H     38.73000000    74.42000000     8.02000000
   H     39.23000000    76.81000000     8.77000000
   H     37.99000000    76.73000000     9.85000000
  Ca     34.33000000    77.13000000     6.85000000
   O     35.37000000    77.66000000     4.49000000
   H     36.12000000    78.17000000     4.79000000
   H     35.11000000    78.08000000     3.66000000

C O H 0
aug-cc-pVTZ 
****
@/home/pzhang5/ca_ccpvtz_basisset.gbs/N

Ca 1.70




