%Nproc=28
%chk=holo10.0.chk
%mem=80GB
%NoSave
#MP2(semidirect)/Gen scf=(tight,noincore) Test
#IOP(5/87=12) Density=Current Pop=(MK,readradii) iop(6/33=2) iop(6/42=6)

holo_loop_3_model_10.0 

   0   1
   C     31.93000000    73.08000000    10.38000000
   C     30.80000000    72.54000000     9.50000000
   C     29.78000000    73.52000000     8.97000000
   O     28.56000000    73.52000000     9.12000000
   O     30.36000000    74.50000000     8.21000000
   H     32.59400000    72.26500000    10.66700000
   H     31.51000000    73.53200000    11.27800000
   H     32.49000000    73.83000000     9.82000000
   H     30.24000000    71.79000000    10.06000000
   H     31.16000000    72.04000000     8.60000000
   H     31.31000000    74.43000000     8.14000000
   C     30.65000000    78.00000000    12.63000000
   C     31.40000000    78.87000000    11.62000000
   C     31.72000000    78.25000000    10.26000000
   O     31.96000000    79.06000000     9.34000000
   O     31.79000000    77.01000000    10.13000000
   H     31.14000000    77.04700000    12.83200000
   H     29.65700000    77.73700000    12.26400000
   H     30.59000000    78.65000000    13.50000000
   H     32.37000000    79.16000000    12.00000000
   H     30.84000000    79.78000000    11.41000000
   C     38.87000000    74.84000000    10.20000000
   C     37.58000000    75.19000000     9.47000000
   C     37.22000000    76.67000000     9.57000000
   C     35.82000000    76.87000000     9.01000000
   O     35.55000000    76.23000000     7.97000000
   O     35.06000000    77.68000000     9.57000000
   H     39.72200000    75.27000000     9.67300000
   H     38.98700000    73.75700000    10.23900000
   H     38.82000000    75.24000000    11.21000000
   H     36.84000000    74.59000000    10.00000000
   H     37.66000000    74.82000000     8.45000000
   H     37.87000000    77.31000000     8.97000000
   H     37.20000000    77.11000000    10.57000000
  Ca     33.08000000    77.49000000     7.62000000
   O     34.27000000    77.81000000     5.08000000
   H     35.05000000    78.36000000     5.20000000
   H     34.09000000    77.85000000     4.14000000

C O H 0
aug-cc-pVTZ 
****
@/home/pzhang5/ca_ccpvtz_basisset.gbs/N

Ca 1.70




