%Nproc=28
%chk=holo14.1.chk
%mem=80GB
%NoSave
#MP2(semidirect)/Gen scf=(tight,noincore) Test
#IOP(5/87=12) Density=Current Pop=(MK,readradii) iop(6/33=2) iop(6/42=6)

holo_loop_3_model_14.1 

   0   1
   C     31.30000000    71.31000000     9.43000000
   C     30.51000000    70.51000000     8.41000000
   C     29.40000000    71.29000000     7.72000000
   O     28.21000000    71.02000000     7.82000000
   O     29.79000000    72.37000000     6.98000000
   H     32.01700000    70.66500000     9.93700000
   H     30.62300000    71.73200000    10.17300000
   H     31.82000000    72.11000000     8.91000000
   H     29.99000000    69.67000000     8.88000000
   H     31.26000000    70.16000000     7.70000000
   H     30.72000000    72.41000000     6.74000000
   C     28.87000000    75.94000000    11.11000000
   C     29.65000000    76.90000000    10.22000000
   C     30.47000000    76.35000000     9.06000000
   O     31.00000000    77.15000000     8.27000000
   O     30.53000000    75.11000000     8.89000000
   H     29.52100000    75.13800000    11.45700000
   H     28.04600000    75.50200000    10.54700000
   H     28.48000000    76.50000000    11.96000000
   H     30.31000000    77.44000000    10.90000000
   H     28.98000000    77.59000000     9.71000000
   C     38.22000000    73.46000000     9.79000000
   C     36.87000000    73.69000000     9.10000000
   C     36.24000000    75.07000000     9.07000000
   C     35.04000000    75.33000000     8.17000000
   O     34.75000000    74.51000000     7.27000000
   O     34.39000000    76.39000000     8.33000000
   H     39.00400000    73.90200000     9.17600000
   H     38.38500000    72.38900000     9.90400000
   H     38.24000000    73.93000000    10.77000000
   H     36.14000000    73.02000000     9.56000000
   H     36.87000000    73.24000000     8.11000000
   H     37.04000000    75.68000000     8.67000000
   H     35.97000000    75.45000000    10.06000000
  Ca     32.34000000    75.56000000     6.50000000
   O     33.98000000    75.91000000     4.43000000
   H     33.76000000    75.71000000     3.52000000
   H     34.45000000    76.75000000     4.39000000

C O H 0
aug-cc-pVTZ 
****
@/home/pzhang5/ca_ccpvtz_basisset.gbs/N

Ca 1.70




