%Nproc=28
%chk=holo54.0.chk
%mem=80GB
%NoSave
#MP2(semidirect)/Gen scf=(tight,noincore) Test
#IOP(5/87=12) Density=Current Pop=(MK,readradii) iop(6/33=2) iop(6/42=6)

holo_loop_3_model_54.0 

   0   1
   C     39.51000000    74.92000000    12.99000000
   C     38.58000000    74.54000000    11.84000000
   C     37.95000000    75.74000000    11.16000000
   O     36.75000000    76.00000000    11.16000000
   O     38.70000000    76.39000000    10.23000000
   H     39.76000000    74.09200000    13.65400000
   H     39.05500000    75.66400000    13.64300000
   H     40.36000000    75.33000000    12.45000000
   H     37.78000000    73.95000000    12.29000000
   H     39.04000000    73.93000000    11.07000000
   H     39.63000000    76.13000000    10.18000000
   C     40.60000000    79.92000000    13.15000000
   C     41.71000000    79.98000000    12.10000000
   C     41.72000000    79.08000000    10.88000000
   O     41.01000000    78.05000000    10.84000000
   O     42.42000000    79.44000000     9.91000000
   H     40.56700000    78.95800000    13.66100000
   H     39.62300000    80.05600000    12.68600000
   H     40.82000000    80.74000000    13.83000000
   H     42.60000000    79.68000000    12.66000000
   H     41.81000000    80.96000000    11.65000000
   C     46.38000000    72.63000000    12.31000000
   C     45.16000000    73.18000000    11.58000000
   C     45.25000000    74.66000000    11.19000000
   C     44.09000000    75.28000000    10.42000000
   O     43.72000000    74.70000000     9.38000000
   O     43.70000000    76.37000000    10.87000000
   H     47.22600000    72.72900000    11.62900000
   H     46.18000000    71.59300000    12.58100000
   H     46.64000000    73.18000000    13.22000000
   H     44.31000000    72.99000000    12.24000000
   H     44.92000000    72.63000000    10.67000000
   H     46.12000000    74.79000000    10.55000000
   H     45.35000000    75.22000000    12.12000000
  Ca     42.21000000    77.18000000     8.53000000
   O     42.92000000    75.13000000     7.05000000
   H     43.26000000    74.85000000     7.90000000
   H     43.63000000    74.93000000     6.44000000

C O H 0
aug-cc-pVTZ 
****
@/home/pzhang5/ca_ccpvtz_basisset.gbs/N

Ca 1.70




