%Nproc=28
%chk=holo62.0.chk
%mem=80GB
%NoSave
#MP2(semidirect)/Gen scf=(tight,noincore) Test
#IOP(5/87=12) Density=Current Pop=(MK,readradii) iop(6/33=2) iop(6/42=6)

holo_loop_3_model_62.0 

   0   1
   C     38.81000000    73.63000000    12.49000000
   C     37.54000000    73.35000000    11.69000000
   C     36.97000000    74.53000000    10.92000000
   O     35.96000000    75.18000000    11.15000000
   O     37.73000000    74.85000000     9.83000000
   H     39.24300000    72.73700000    12.94100000
   H     38.61000000    74.30400000    13.32300000
   H     39.46000000    74.10000000    11.75000000
   H     36.75000000    73.04000000    12.38000000
   H     37.73000000    72.59000000    10.93000000
   H     38.53000000    74.32000000     9.77000000
   C     40.17000000    78.52000000    12.75000000
   C     41.23000000    78.31000000    11.67000000
   C     40.89000000    77.43000000    10.48000000
   O     40.91000000    76.18000000    10.50000000
   O     40.69000000    78.03000000     9.40000000
   H     39.93300000    77.62300000    13.32200000
   H     39.21700000    78.82800000    12.32000000
   H     40.62000000    79.32000000    13.34000000
   H     42.20000000    77.98000000    12.05000000
   H     41.56000000    79.25000000    11.24000000
   C     45.75000000    72.02000000    10.87000000
   C     44.46000000    72.60000000    10.29000000
   C     44.66000000    74.07000000     9.96000000
   C     43.63000000    74.70000000     9.03000000
   O     42.90000000    73.98000000     8.32000000
   O     43.47000000    75.94000000     8.98000000
   H     46.55300000    71.97400000    10.13400000
   H     45.59400000    70.99700000    11.21400000
   H     45.99000000    72.68000000    11.71000000
   H     43.70000000    72.44000000    11.05000000
   H     44.08000000    72.03000000     9.44000000
   H     45.54000000    74.34000000     9.38000000
   H     44.77000000    74.61000000    10.90000000
  Ca     41.00000000    75.86000000     7.74000000
   O     41.46000000    74.48000000     5.19000000
   H     42.40000000    74.34000000     5.21000000
   H     41.28000000    74.77000000     4.29000000

C O H 0
aug-cc-pVTZ 
****
@/home/pzhang5/ca_ccpvtz_basisset.gbs/N

Ca 1.70




