%Nproc=28
%chk=holo44.0.chk
%mem=80GB
%NoSave
#MP2(semidirect)/Gen scf=(tight,noincore) Test
#IOP(5/87=12) Density=Current Pop=(MK,readradii) iop(6/33=2) iop(6/42=6)

holo_loop_3_model_44.0 

   0   1
   C     31.56000000    72.49000000    10.22000000
   C     30.39000000    71.63000000     9.75000000
   C     29.12000000    72.34000000     9.30000000
   O     28.00000000    72.23000000     9.79000000
   O     29.40000000    73.31000000     8.38000000
   H     32.38700000    71.82700000    10.47600000
   H     31.24500000    73.07300000    11.08500000
   H     31.90000000    73.17000000     9.44000000
   H     30.11000000    71.00000000    10.59000000
   H     30.70000000    70.91000000     9.00000000
   H     30.33000000    73.41000000     8.16000000
   C     30.12000000    77.80000000    11.18000000
   C     30.68000000    78.56000000     9.98000000
   C     30.44000000    77.79000000     8.70000000
   O     30.86000000    78.33000000     7.65000000
   O     30.38000000    76.54000000     8.68000000
   H     30.79600000    77.02400000    11.54100000
   H     29.19300000    77.28900000    10.91900000
   H     29.94000000    78.58000000    11.92000000
   H     31.76000000    78.74000000    10.02000000
   H     30.25000000    79.55000000     9.83000000
   C     38.43000000    75.49000000     8.24000000
   C     36.97000000    75.38000000     7.82000000
   C     36.37000000    76.72000000     7.39000000
   C     34.99000000    76.76000000     6.76000000
   O     34.31000000    77.75000000     7.11000000
   O     34.52000000    75.81000000     6.10000000
   H     39.07300000    75.77800000     7.40900000
   H     38.79900000    74.53000000     8.60100000
   H     38.44000000    76.23000000     9.04000000
   H     36.42000000    74.99000000     8.68000000
   H     37.01000000    74.57000000     7.09000000
   H     37.07000000    77.14000000     6.66000000
   H     36.37000000    77.42000000     8.22000000
  Ca     31.93000000    76.09000000     6.69000000
   O     32.75000000    76.58000000     4.12000000
   H     33.67000000    76.48000000     4.37000000
   H     32.70000000    76.20000000     3.24000000

C O H 0
aug-cc-pVTZ 
****
@/home/pzhang5/ca_ccpvtz_basisset.gbs/N

Ca 1.70




