%chk=apoCaM-CA-Ng.loop3.water9.frame1190.chk
%nprocshared=12
%mem=10GB
%nosave
#b3lyp/svp scf=(tight,noincore,xqc) Test 
#IOP(5/87=12) Density=Current Pop=(MK,readradii) iop(6/33=2) iop(6/42=6)

apoCaM-CA-Ng.loop3.water9.frame1190 

   0  1 
   C     -2.85000000    40.32000000    97.30000000
   C     -4.33000000    39.98000000    97.21000000
   O     -5.05000000    40.42000000    96.28000000
   H     -2.30000000    39.74800000    96.55300000
   H     -2.71000000    41.38500000    97.11700000
   H     -2.47900000    40.07000000    98.29400000
   N     -4.93000000    39.31000000    98.20000000
   C     -6.40000000    38.91000000    98.19000000
   C     -7.34000000    40.15000000    98.32000000
   O     -8.33000000    40.28000000    97.61000000
   C     -6.71000000    37.76000000    99.23000000
   C     -6.35000000    38.01000000   100.72000000
   O     -6.09000000    39.20000000   101.04000000
   O     -6.33000000    37.05000000   101.56000000
   H     -4.31000000    39.03000000    98.94000000
   H     -6.59000000    38.41000000    97.24000000
   H     -6.26000000    36.88000000    98.76000000
   H     -7.78000000    37.53000000    99.28000000
   N     -7.09000000    41.06000000    99.32000000
   C     -7.88000000    42.31000000    99.41000000
   C     -9.33000000    42.10000000    99.78000000
   O     -9.61000000    41.60000000   100.79000000
   C     -7.21000000    43.22000000   100.38000000
   C     -5.67000000    43.27000000   100.35000000
   C     -5.25000000    44.46000000   101.20000000
   C     -5.73000000    44.57000000   102.67000000
   N     -5.06000000    43.56000000   103.60000000
   H     -6.49000000    40.84000000   100.09000000
   H     -8.00000000    42.79000000    98.44000000
   H     -7.49000000    42.99000000   101.41000000
   H     -7.57000000    44.22000000   100.14000000
   H     -5.24000000    43.28000000    99.35000000
   H     -5.19000000    42.39000000   100.77000000
   H     -5.59000000    45.34000000   100.65000000
   H     -4.17000000    44.64000000   101.15000000
   H     -6.80000000    44.37000000   102.70000000
   H     -5.60000000    45.60000000   103.02000000
   H     -4.05000000    43.63000000   103.52000000
   H     -5.29000000    43.83000000   104.55000000
   H     -5.46000000    42.65000000   103.45000000
   N    -10.33000000    42.32000000    98.91000000
   C    -11.73000000    41.95000000    98.95000000
   C    -12.09000000    40.53000000    98.45000000
   O    -13.22000000    40.12000000    98.50000000
   C    -12.57000000    43.02000000    98.14000000
   C    -12.11000000    43.52000000    96.78000000
   O    -12.87000000    44.34000000    96.13000000
   O    -11.00000000    43.12000000    96.28000000
   H    -10.05000000    42.77000000    98.05000000
   H    -12.05000000    42.08000000    99.98000000
   H    -12.70000000    43.94000000    98.70000000
   H    -13.58000000    42.65000000    98.02000000
   N    -11.18000000    39.78000000    97.90000000
   C    -11.36000000    38.57000000    97.01000000
   C    -10.44000000    37.42000000    97.56000000
   O    -10.72000000    36.88000000    98.62000000
   H    -10.27000000    40.23000000    97.95000000
   H    -11.02000000    38.91000000    96.03000000
   H    -12.40000000    38.24000000    97.04000000
   N     -9.46000000    36.90000000    96.82000000
   C     -9.10000000    37.25000000    95.38000000
   C     -7.58000000    36.90000000    95.15000000
   O     -7.11000000    35.85000000    95.59000000
   C    -10.07000000    36.45000000    94.51000000
   C     -9.61000000    36.53000000    93.06000000
   N     -9.64000000    37.70000000    92.42000000
   O     -9.00000000    35.63000000    92.50000000
   H     -8.92000000    36.23000000    97.36000000
   H     -9.16000000    38.33000000    95.27000000
   H    -11.01000000    36.98000000    94.66000000
   H    -10.11000000    35.40000000    94.79000000
   H    -10.20000000    38.47000000    92.76000000
   H     -9.22000000    37.84000000    91.51000000
   N     -6.70000000    37.82000000    94.77000000
   C     -6.91000000    39.15000000    94.18000000
   C     -5.64000000    39.57000000    93.41000000
   O     -4.79000000    38.73000000    92.97000000
   H     -5.77000000    37.47000000    94.63000000
   H     -7.21000000    39.85000000    94.95000000
   H     -7.70000000    39.03000000    93.44000000
   N     -5.37000000    40.90000000    93.44000000
   C     -4.18000000    41.48000000    92.86000000
   C     -3.55000000    42.56000000    93.74000000
   O     -4.27000000    43.17000000    94.50000000
   C     -4.50000000    41.96000000    91.44000000
   C     -3.41000000    42.46000000    90.57000000
   C     -3.27000000    43.84000000    90.29000000
   C     -2.45000000    41.54000000    90.08000000
   C     -2.22000000    44.34000000    89.47000000
   C     -1.45000000    42.02000000    89.22000000
   C     -1.38000000    43.41000000    88.89000000
   O     -0.26000000    43.89000000    88.15000000
   H     -6.03000000    41.53000000    93.87000000
   H     -3.43000000    40.69000000    92.84000000
   H     -5.19000000    42.78000000    91.64000000
   H     -5.10000000    41.16000000    91.02000000
   H     -3.93000000    44.53000000    90.79000000
   H     -2.55000000    40.49000000    90.34000000
   H     -2.03000000    45.39000000    89.34000000
   H     -0.67000000    41.33000000    88.93000000
   H      0.32000000    43.25000000    87.74000000
   N     -2.21000000    42.84000000    93.53000000
   C     -1.35000000    43.78000000    94.27000000
   C     -1.82000000    45.21000000    94.09000000
   O     -2.49000000    45.53000000    93.10000000
   C      0.13000000    43.61000000    93.81000000
   C      0.52000000    44.06000000    92.41000000
   C      0.99000000    44.18000000    94.94000000
   C      1.98000000    43.67000000    92.01000000
   H     -1.71000000    42.33000000    92.81000000
   H     -1.38000000    43.43000000    95.30000000
   H      0.30000000    42.53000000    93.75000000
   H      0.43000000    45.14000000    92.51000000
   H     -0.18000000    43.63000000    91.69000000
   H      1.96000000    43.68000000    94.93000000
   H      1.25000000    45.21000000    94.70000000
   H      0.52000000    44.12000000    95.92000000
   H      2.74000000    44.20000000    92.58000000
   H      2.06000000    42.58000000    92.00000000
   H      2.19000000    44.06000000    91.02000000
   N     -1.56000000    46.10000000    95.10000000
   C     -1.97000000    47.47000000    95.30000000
   C     -2.87000000    47.46000000    96.57000000
   O     -2.51000000    47.02000000    97.66000000
   C     -0.77000000    48.38000000    95.51000000
   O      0.14000000    48.33000000    94.43000000
   H     -0.89000000    45.79000000    95.80000000
   H     -2.52000000    47.84000000    94.44000000
   H     -0.18000000    48.08000000    96.37000000
   H     -1.06000000    49.42000000    95.62000000
   H      0.67000000    49.13000000    94.37000000
   N     -4.11000000    47.83000000    96.48000000
   C     -5.14000000    47.79000000    97.49000000
   C     -4.69000000    48.48000000    98.83000000
   O     -5.09000000    47.98000000    99.88000000
   C     -5.80000000    46.43000000    97.67000000
   H     -4.45000000    48.02000000    95.56000000
   H     -5.81000000    48.54000000    97.07000000
   H     -6.58000000    46.47000000    98.43000000
   H     -6.19000000    46.00000000    96.74000000
   H     -5.06000000    45.70000000    98.01000000
   N     -3.81000000    49.51000000    98.75000000
   C     -3.27000000    50.28000000    99.87000000
   C     -2.35000000    49.50000000   100.84000000
   O     -2.11000000    49.98000000   101.99000000
   C     -4.25000000    51.22000000   100.51000000
   H     -3.53000000    49.79000000    97.82000000
   H     -2.47000000    50.88000000    99.45000000
   H     -5.28000000    50.93000000   100.33000000
   H     -4.00000000    51.37000000   101.56000000
   H     -4.16000000    52.25000000   100.14000000
   N     -1.74000000    48.37000000   100.45000000
   C     -0.94000000    47.43000000   101.23000000
   C      0.58000000    47.60000000   101.03000000
   O      1.43000000    47.53000000   101.95000000
   C     -1.27000000    46.00000000   100.76000000
   C     -0.75000000    44.86000000   101.71000000
   C     -1.53000000    44.77000000   103.00000000
   O     -1.22000000    45.55000000   103.92000000
   O     -2.36000000    43.89000000   103.13000000
   H     -2.06000000    48.01000000    99.58000000
   H     -1.19000000    47.58000000   102.28000000
   H     -0.81000000    45.80000000    99.79000000
   H     -2.34000000    46.00000000   100.57000000
   H      0.27000000    45.09000000   102.01000000
   H     -0.81000000    43.92000000   101.16000000
   N      0.98000000    47.94000000    99.81000000
   C      2.40000000    48.31000000    99.46000000
   H      3.06100000    47.47600000    99.69500000
   H      2.46500000    48.53600000    98.39600000
   H      2.70100000    49.18500000   100.03700000
   H      0.19000000    48.30000000    99.30000000
  Ca    -28.31500000    -7.34500000   117.79500000
   O    -25.59500000    -7.76500000   118.55500000
   H    -25.21500000    -8.32500000   119.22500000
   H    -25.09500000    -6.94500000   118.61500000
   O    -30.09500000    -4.99500000   117.53500000
   O    -30.57500000    -7.61500000   119.38500000
   H    -30.72500000    -4.86500000   118.24500000
   H    -30.63500000    -7.99500000   120.26500000
   H    -30.59500000    -4.80500000   116.73500000
   H    -31.43500000    -7.77500000   118.99500000
   O    -30.45500000    -8.47500000   116.60500000
   H    -31.36500000    -8.20500000   116.61500000
   H    -30.31500000    -8.81500000   115.71500000
   O    -28.14500000    -6.11500000   120.15500000
   H    -28.01500000    -5.17500000   120.28500000
   H    -28.50500000    -6.43500000   120.98500000
   O    -27.01500000    -8.63500000   115.82500000
   H    -26.12500000    -8.67500000   116.17500000
   H    -26.90500000    -8.72500000   114.87500000
   O    -28.02500000    -9.81500000   118.75500000
   H    -27.45500000    -9.89500000   119.51500000
   H    -27.80500000   -10.57500000   118.20500000
   O    -28.61500000    -6.27500000   115.15500000
   H    -29.50500000    -5.97500000   115.34500000
   H    -28.41500000    -5.89500000   114.30500000
   O    -26.78500000    -5.08500000   117.33500000
   H    -26.31500000    -4.42500000   117.83500000
   H    -26.61500000    -4.86500000   116.41500000

Ca 1.00



