%chk=Ng-293_loop3_2.0.chk
%nprocshared=48
%mem=10GB
%nosave
#b3lyp/svp scf=(tight,noincore) Test 
#IOP(5/87=12) Density=Current Pop=(MK,readradii) iop(6/33=2) iop(6/42=6)

Ng-293_loop3_2.0 

   0   1
   C     39.62000000     7.95000000     7.96000000
   C     38.50000000     8.68000000     7.22000000
   O     37.60000000     8.04000000     6.68000000
   H     40.46700000     8.62400000     8.09200000
   H     39.26000000     7.62400000     8.93600000
   H     39.93400000     7.08200000     7.38000000
   N     38.58000000    10.00000000     7.12000000
   C     37.61000000    10.73000000     6.32000000
   C     36.48000000    11.24000000     7.20000000
   O     36.63000000    11.25000000     8.42000000
   C     38.26000000    11.84000000     5.50000000
   C     39.49000000    11.50000000     4.66000000
   O     39.99000000    12.43000000     4.00000000
   O     40.06000000    10.39000000     4.68000000
   H     39.23000000    10.51000000     7.70000000
   H     37.12000000    10.10000000     5.58000000
   H     38.55000000    12.59000000     6.24000000
   H     37.51000000    12.29000000     4.85000000
   N     35.37000000    11.68000000     6.61000000
   C     34.16000000    12.16000000     7.25000000
   C     34.37000000    13.43000000     8.07000000
   O     33.37000000    14.01000000     8.48000000
   C     33.31000000    11.05000000     7.84000000
   C     32.86000000     9.96000000     6.87000000
   C     33.71000000     8.70000000     7.01000000
   C     34.20000000     8.31000000     5.61000000
   N     35.01000000     7.08000000     5.70000000
   H     35.36000000    11.59000000     5.60000000
   H     33.56000000    12.56000000     6.43000000
   H     32.38000000    11.44000000     8.26000000
   H     33.76000000    10.65000000     8.76000000
   H     32.94000000    10.33000000     5.84000000
   H     31.81000000     9.72000000     7.04000000
   H     32.92000000     8.00000000     7.28000000
   H     34.51000000     8.82000000     7.73000000
   H     34.77000000     9.13000000     5.18000000
   H     33.36000000     8.18000000     4.93000000
   H     35.78000000     7.17000000     6.35000000
   H     34.42000000     6.31000000     5.97000000
   H     35.35000000     6.84000000     4.78000000
   N     35.57000000    13.81000000     8.52000000
   C     35.90000000    14.98000000     9.30000000
   C     37.21000000    15.54000000     8.79000000
   O     38.07000000    14.86000000     8.23000000
   C     36.01000000    14.58000000    10.77000000
   C     36.13000000    15.66000000    11.83000000
   O     36.83000000    16.69000000    11.67000000
   O     35.53000000    15.59000000    12.92000000
   H     36.33000000    13.24000000     8.17000000
   H     35.25000000    15.85000000     9.19000000
   H     36.67000000    13.72000000    10.92000000
   H     35.06000000    14.07000000    10.95000000
   N     37.45000000    16.82000000     9.11000000
   C     38.68000000    17.55000000     8.88000000
   C     38.73000000    18.76000000     9.80000000
   O     37.94000000    19.67000000     9.54000000
   H     36.73000000    17.44000000     9.44000000
   H     38.80000000    17.78000000     7.82000000
   H     39.46000000    16.84000000     9.15000000
   N     39.64000000    18.84000000    10.78000000
   C     40.00000000    20.01000000    11.54000000
   C     40.82000000    21.09000000    10.86000000
   O     41.29000000    22.05000000    11.47000000
   C     40.52000000    19.63000000    12.92000000
   C     39.52000000    18.68000000    13.57000000
   N     39.95000000    17.60000000    14.23000000
   O     38.32000000    18.83000000    13.39000000
   H     40.16000000    17.97000000    10.82000000
   H     39.11000000    20.60000000    11.76000000
   H     40.56000000    20.56000000    13.48000000
   H     41.49000000    19.15000000    12.79000000
   H     40.89000000    17.61000000    14.60000000
   H     39.19000000    17.09000000    14.65000000
   N     41.07000000    21.03000000     9.55000000
   C     41.86000000    21.98000000     8.78000000
   C     43.35000000    22.02000000     9.10000000
   O     44.04000000    21.00000000     9.13000000
   H     40.89000000    20.14000000     9.10000000
   H     41.31000000    22.91000000     8.94000000
   H     41.91000000    21.74000000     7.72000000
   N     43.86000000    23.22000000     9.38000000
   C     45.13000000    23.45000000    10.05000000
   C     45.33000000    22.69000000    11.36000000
   O     46.46000000    22.61000000    11.83000000
   C     46.29000000    23.38000000     9.06000000
   C     46.38000000    24.45000000     7.99000000
   C     45.80000000    24.19000000     6.75000000
   C     46.95000000    25.70000000     8.26000000
   C     45.74000000    25.20000000     5.78000000
   C     46.96000000    26.67000000     7.25000000
   C     46.29000000    26.47000000     6.03000000
   O     46.35000000    27.40000000     5.03000000
   H     43.36000000    23.99000000     8.97000000
   H     45.20000000    24.48000000    10.41000000
   H     46.14000000    22.38000000     8.65000000
   H     47.26000000    23.36000000     9.55000000
   H     45.37000000    23.22000000     6.55000000
   H     47.32000000    25.86000000     9.26000000
   H     45.28000000    24.90000000     4.85000000
   H     47.29000000    27.68000000     7.44000000
   H     46.31000000    28.30000000     5.35000000
   N     44.29000000    22.13000000    11.98000000
   C     44.28000000    21.38000000    13.22000000
   C     44.44000000    22.29000000    14.43000000
   O     43.46000000    22.47000000    15.14000000
   C     45.20000000    20.16000000    13.19000000
   C     44.78000000    19.20000000    12.08000000
   C     45.34000000    19.47000000    14.55000000
   C     45.92000000    18.35000000    11.54000000
   H     43.41000000    22.27000000    11.50000000
   H     43.24000000    21.06000000    13.19000000
   H     46.22000000    20.51000000    13.03000000
   H     44.31000000    19.78000000    11.29000000
   H     43.95000000    18.56000000    12.40000000
   H     46.22000000    18.83000000    14.56000000
   H     45.53000000    20.15000000    15.39000000
   H     44.53000000    18.79000000    14.83000000
   H     46.75000000    19.01000000    11.28000000
   H     46.33000000    17.71000000    12.32000000
   H     45.57000000    17.73000000    10.71000000
   N     45.62000000    22.89000000    14.60000000
   C     45.84000000    23.81000000    15.70000000
   C     46.00000000    23.21000000    17.08000000
   O     45.74000000    23.84000000    18.11000000
   C     47.14000000    24.53000000    15.36000000
   O     46.94000000    25.41000000    14.27000000
   H     46.31000000    22.76000000    13.87000000
   H     44.99000000    24.50000000    15.70000000
   H     47.93000000    23.81000000    15.14000000
   H     47.46000000    25.20000000    16.16000000
   H     47.81000000    25.65000000    13.96000000
   N     46.32000000    21.91000000    17.15000000
   C     46.48000000    21.11000000    18.35000000
   C     45.29000000    21.19000000    19.29000000
   O     45.47000000    21.15000000    20.51000000
   C     47.83000000    21.35000000    19.02000000
   H     46.76000000    21.50000000    16.34000000
   H     46.40000000    20.07000000    18.02000000
   H     48.51000000    21.43000000    18.17000000
   H     47.88000000    22.22000000    19.67000000
   H     48.12000000    20.45000000    19.57000000
   N     44.09000000    21.01000000    18.75000000
   C     42.77000000    20.98000000    19.35000000
   C     41.99000000    19.75000000    18.90000000
   O     42.51000000    18.98000000    18.10000000
   C     42.13000000    22.27000000    18.85000000
   H     43.97000000    21.18000000    17.76000000
   H     42.83000000    20.85000000    20.43000000
   H     42.42000000    23.08000000    19.52000000
   H     42.51000000    22.47000000    17.85000000
   H     41.05000000    22.15000000    18.84000000
   N     40.80000000    19.49000000    19.43000000
   C     39.92000000    18.36000000    19.19000000
   C     40.54000000    17.03000000    19.61000000
   O     39.96000000    16.00000000    19.28000000
   C     39.35000000    18.30000000    17.77000000
   C     37.99000000    17.61000000    17.75000000
   C     37.37000000    17.72000000    16.36000000
   O     37.63000000    16.86000000    15.49000000
   O     36.61000000    18.68000000    16.10000000
   H     40.30000000    20.25000000    19.87000000
   H     39.14000000    18.48000000    19.94000000
   H     40.01000000    17.75000000    17.11000000
   H     39.25000000    19.30000000    17.33000000
   H     37.36000000    17.93000000    18.57000000
   H     38.17000000    16.56000000    17.97000000
   N     41.62000000    16.96000000    20.38000000
   C     42.50000000    15.81000000    20.50000000
   H     43.42400000    16.11000000    20.99400000
   H     42.00900000    15.03600000    21.08900000
   H     42.72900000    15.42200000    19.50800000
   H     42.08000000    17.83000000    20.62000000
  Ca     35.80000000    18.11000000    13.72000000
   O     34.45000000    20.01000000    14.79000000
   H     34.29000000    20.90000000    14.47000000
   H     34.63000000    20.12000000    15.72000000

Ca 1.70



