%chk=Ng-293_loop3_1.0.chk
%nprocshared=48
%mem=10GB
%nosave
#b3lyp/svp scf=(tight,noincore) Test 
#IOP(5/87=12) Density=Current Pop=(MK,readradii) iop(6/33=2) iop(6/42=6)

Ng-293_loop3_1.0 

   0   1
   C     41.70000000    76.06000000    67.47000000
   C     42.22000000    76.07000000    66.04000000
   O     43.33000000    76.51000000    65.75000000
   H     40.67500000    75.69000000    67.48100000
   H     42.32700000    75.41000000    68.08100000
   H     41.72400000    77.07200000    67.87300000
   N     41.44000000    75.54000000    65.09000000
   C     41.80000000    75.59000000    63.69000000
   C     41.35000000    74.27000000    63.08000000
   O     40.59000000    73.58000000    63.75000000
   C     41.20000000    76.83000000    63.05000000
   C     41.65000000    77.07000000    61.61000000
   O     42.73000000    76.63000000    61.17000000
   O     40.98000000    77.80000000    60.85000000
   H     40.66000000    75.02000000    65.45000000
   H     42.87000000    75.72000000    63.57000000
   H     41.55000000    77.68000000    63.64000000
   H     40.13000000    76.80000000    63.25000000
   N     41.90000000    74.01000000    61.88000000
   C     41.70000000    72.81000000    61.09000000
   C     40.28000000    72.58000000    60.57000000
   O     39.37000000    73.33000000    60.92000000
   C     42.22000000    71.52000000    61.71000000
   C     43.61000000    71.56000000    62.36000000
   C     44.64000000    71.85000000    61.27000000
   C     46.08000000    71.89000000    61.76000000
   N     47.05000000    72.28000000    60.72000000
   H     42.53000000    74.71000000    61.53000000
   H     42.22000000    72.91000000    60.14000000
   H     42.33000000    70.78000000    60.92000000
   H     41.56000000    71.33000000    62.55000000
   H     43.79000000    70.53000000    62.69000000
   H     43.63000000    72.27000000    63.18000000
   H     44.33000000    72.84000000    60.92000000
   H     44.47000000    71.17000000    60.44000000
   H     46.41000000    70.90000000    62.09000000
   H     46.07000000    72.59000000    62.60000000
   H     48.01000000    72.25000000    61.03000000
   H     47.02000000    71.65000000    59.93000000
   H     46.85000000    73.23000000    60.46000000
   N     40.14000000    71.76000000    59.54000000
   C     39.08000000    71.84000000    58.55000000
   C     37.69000000    71.53000000    59.10000000
   O     37.58000000    70.63000000    59.94000000
   C     39.34000000    70.99000000    57.31000000
   C     40.02000000    69.65000000    57.54000000
   O     39.66000000    68.73000000    56.78000000
   O     41.03000000    69.52000000    58.26000000
   H     40.93000000    71.17000000    59.30000000
   H     39.06000000    72.86000000    58.18000000
   H     39.98000000    71.59000000    56.65000000
   H     38.41000000    70.87000000    56.76000000
   N     36.63000000    72.03000000    58.46000000
   C     35.29000000    71.52000000    58.67000000
   C     35.00000000    70.11000000    58.18000000
   O     35.03000000    69.82000000    56.99000000
   H     36.78000000    72.54000000    57.60000000
   H     34.46000000    72.16000000    58.37000000
   H     35.05000000    71.49000000    59.73000000
   N     34.54000000    69.24000000    59.09000000
   C     34.33000000    67.83000000    58.80000000
   C     33.02000000    67.33000000    59.37000000
   O     32.88000000    66.13000000    59.62000000
   C     35.45000000    66.95000000    59.35000000
   C     36.75000000    67.10000000    58.57000000
   N     37.77000000    67.73000000    59.16000000
   O     36.84000000    66.59000000    57.46000000
   H     34.33000000    69.60000000    60.01000000
   H     34.17000000    67.68000000    57.73000000
   H     35.18000000    65.91000000    59.20000000
   H     35.62000000    67.22000000    60.39000000
   H     37.56000000    68.08000000    60.09000000
   H     38.47000000    68.06000000    58.51000000
   N     31.97000000    68.16000000    59.44000000
   C     30.59000000    67.71000000    59.51000000
   C     30.19000000    67.00000000    60.80000000
   O     30.55000000    67.47000000    61.87000000
   H     32.17000000    69.12000000    59.21000000
   H     30.42000000    67.10000000    58.62000000
   H     29.94000000    68.58000000    59.54000000
   N     29.79000000    65.74000000    60.63000000
   C     29.50000000    64.77000000    61.67000000
   C     30.71000000    64.35000000    62.48000000
   O     30.68000000    63.54000000    63.40000000
   C     28.35000000    65.23000000    62.56000000
   C     27.59000000    64.27000000    63.45000000
   C     27.18000000    64.66000000    64.73000000
   C     27.03000000    63.14000000    62.84000000
   C     26.23000000    63.91000000    65.43000000
   C     26.12000000    62.36000000    63.56000000
   C     25.71000000    62.73000000    64.86000000
   O     24.64000000    62.13000000    65.45000000
   H     29.68000000    65.49000000    59.66000000
   H     29.14000000    63.90000000    61.12000000
   H     27.62000000    65.67000000    61.89000000
   H     28.68000000    66.10000000    63.14000000
   H     27.57000000    65.54000000    65.23000000
   H     27.28000000    62.87000000    61.82000000
   H     25.72000000    64.28000000    66.31000000
   H     25.73000000    61.44000000    63.14000000
   H     24.12000000    61.55000000    64.89000000
   N     31.88000000    64.84000000    62.06000000
   C     33.26000000    64.48000000    62.33000000
   C     33.53000000    63.02000000    61.98000000
   O     34.30000000    62.82000000    61.05000000
   C     33.66000000    64.80000000    63.77000000
   C     33.05000000    66.04000000    64.40000000
   C     35.17000000    64.78000000    63.99000000
   C     33.46000000    67.34000000    63.71000000
   H     31.79000000    65.29000000    61.16000000
   H     33.84000000    65.09000000    61.64000000
   H     33.36000000    63.92000000    64.35000000
   H     33.37000000    66.05000000    65.45000000
   H     31.97000000    65.92000000    64.34000000
   H     35.66000000    63.87000000    63.65000000
   H     35.64000000    65.61000000    63.47000000
   H     35.46000000    64.95000000    65.03000000
   H     33.31000000    67.33000000    62.63000000
   H     32.79000000    68.06000000    64.17000000
   H     34.49000000    67.62000000    63.93000000
   N     33.01000000    62.03000000    62.71000000
   C     33.44000000    60.65000000    62.57000000
   C     34.70000000    60.42000000    63.39000000
   O     35.59000000    59.68000000    62.97000000
   C     32.30000000    59.74000000    63.00000000
   O     31.73000000    60.01000000    64.26000000
   H     32.27000000    62.29000000    63.34000000
   H     33.65000000    60.54000000    61.51000000
   H     32.70000000    58.73000000    62.86000000
   H     31.48000000    59.69000000    62.28000000
   H     31.22000000    59.28000000    64.63000000
   N     34.85000000    60.99000000    64.59000000
   C     35.94000000    60.67000000    65.49000000
   C     37.32000000    60.67000000    64.84000000
   O     38.13000000    59.77000000    65.04000000
   C     35.68000000    59.36000000    66.23000000
   H     34.05000000    61.43000000    65.03000000
   H     35.94000000    61.40000000    66.29000000
   H     36.39000000    59.21000000    67.04000000
   H     34.64000000    59.32000000    66.56000000
   H     35.75000000    58.49000000    65.58000000
   N     37.62000000    61.64000000    63.97000000
   C     38.83000000    61.52000000    63.19000000
   C     39.63000000    62.79000000    63.42000000
   O     39.11000000    63.76000000    63.95000000
   C     38.56000000    61.23000000    61.71000000
   H     37.08000000    62.48000000    63.84000000
   H     39.44000000    60.65000000    63.46000000
   H     37.96000000    62.05000000    61.33000000
   H     39.49000000    61.04000000    61.18000000
   H     38.05000000    60.27000000    61.75000000
   N     40.92000000    62.78000000    63.06000000
   C     41.91000000    63.83000000    63.19000000
   C     42.07000000    64.45000000    64.57000000
   O     42.76000000    65.43000000    64.84000000
   C     41.77000000    64.84000000    62.05000000
   C     41.90000000    64.26000000    60.65000000
   C     41.87000000    65.23000000    59.47000000
   O     42.68000000    65.13000000    58.52000000
   O     40.89000000    65.99000000    59.36000000
   H     41.29000000    61.90000000    62.74000000
   H     42.85000000    63.31000000    63.00000000
   H     42.64000000    65.49000000    62.12000000
   H     40.92000000    65.51000000    62.13000000
   H     41.12000000    63.53000000    60.43000000
   H     42.87000000    63.76000000    60.70000000
   N     41.56000000    63.81000000    65.63000000
   C     41.46000000    64.19000000    67.02000000
   H     40.41400000    64.35900000    67.27600000
   H     41.86200000    63.39300000    67.64500000
   H     42.02700000    65.10600000    67.18900000
   H     41.08000000    62.95000000    65.43000000
  Ca     41.62000000    66.86000000    56.92000000
   O     42.22000000    68.98000000    55.55000000
   H     42.27000000    69.88000000    55.87000000
   H     42.35000000    69.06000000    54.61000000

Ca 1.70



