%chk=Ng-295_loop3_9.0.chk
%nprocshared=48
%mem=10GB
%nosave
#b3lyp/svp scf=(tight,noincore) Test 
#IOP(5/87=12) Density=Current Pop=(MK,readradii) iop(6/33=2) iop(6/42=6)

Ng-295_loop3_9.0 

   0   1
   C     94.26000000    62.81000000    28.38000000
   C     94.83000000    61.47000000    27.95000000
   O     94.86000000    60.44000000    28.63000000
   H     93.27700000    62.66000000    28.82700000
   H     94.92500000    63.27000000    29.11100000
   H     94.16700000    63.46200000    27.51100000
   N     95.42000000    61.49000000    26.75000000
   C     96.01000000    60.33000000    26.11000000
   C     97.26000000    59.85000000    26.83000000
   O     97.99000000    60.66000000    27.39000000
   C     96.37000000    60.56000000    24.65000000
   C     96.69000000    59.22000000    24.00000000
   O     95.93000000    58.26000000    24.24000000
   O     97.68000000    59.15000000    23.24000000
   H     95.17000000    62.27000000    26.15000000
   H     95.23000000    59.57000000    26.17000000
   H     97.12000000    61.36000000    24.60000000
   H     95.47000000    60.90000000    24.14000000
   N     97.51000000    58.54000000    26.78000000
   C     98.69000000    57.81000000    27.24000000
   C     99.97000000    58.44000000    26.71000000
   O    100.89000000    58.77000000    27.46000000
   C     98.49000000    56.32000000    27.01000000
   C     98.72000000    55.89000000    25.56000000
   C     98.76000000    54.37000000    25.38000000
   C     98.88000000    53.92000000    23.93000000
   N    100.15000000    54.39000000    23.37000000
   H     96.74000000    57.99000000    26.44000000
   H     98.71000000    58.14000000    28.27000000
   H     97.51000000    55.95000000    27.31000000
   H     99.19000000    55.85000000    27.70000000
   H     99.67000000    56.28000000    25.18000000
   H     97.91000000    56.25000000    24.94000000
   H     97.96000000    53.93000000    25.97000000
   H     99.60000000    54.02000000    25.98000000
   H     98.04000000    54.38000000    23.39000000
   H     98.70000000    52.85000000    23.87000000
   H    100.47000000    53.79000000    22.62000000
   H    100.12000000    55.36000000    23.07000000
   H    100.88000000    54.40000000    24.07000000
   N    100.05000000    58.67000000    25.40000000
   C    101.20000000    59.24000000    24.72000000
   C    101.01000000    60.72000000    24.42000000
   O    101.80000000    61.36000000    23.75000000
   C    101.56000000    58.44000000    23.47000000
   C    100.39000000    58.15000000    22.55000000
   O    100.20000000    58.77000000    21.48000000
   O     99.76000000    57.08000000    22.75000000
   H     99.30000000    58.47000000    24.75000000
   H    102.05000000    59.14000000    25.41000000
   H    102.05000000    57.51000000    23.76000000
   H    102.26000000    59.06000000    22.91000000
   N     99.94000000    61.26000000    25.01000000
   C     99.46000000    62.59000000    24.68000000
   C     99.14000000    62.93000000    23.23000000
   O     99.19000000    64.11000000    22.90000000
   H     99.45000000    60.75000000    25.72000000
   H    100.16000000    63.36000000    25.00000000
   H     98.55000000    62.57000000    25.26000000
   N     98.87000000    61.99000000    22.32000000
   C     98.75000000    62.24000000    20.90000000
   C     97.54000000    61.51000000    20.32000000
   O     97.43000000    60.29000000    20.41000000
   C    100.13000000    61.93000000    20.32000000
   C    100.27000000    62.19000000    18.83000000
   N    101.06000000    61.39000000    18.12000000
   O     99.80000000    63.18000000    18.27000000
   H     98.85000000    61.03000000    22.62000000
   H     98.55000000    63.30000000    20.74000000
   H    100.42000000    60.89000000    20.49000000
   H    100.82000000    62.62000000    20.81000000
   H    101.52000000    60.56000000    18.48000000
   H    101.32000000    61.59000000    17.16000000
   N     96.63000000    62.24000000    19.68000000
   C     95.29000000    61.75000000    19.42000000
   C     95.13000000    60.57000000    18.47000000
   O     94.02000000    60.08000000    18.29000000
   H     96.78000000    63.24000000    19.65000000
   H     94.70000000    62.56000000    19.01000000
   H     94.93000000    61.44000000    20.41000000
   N     96.19000000    60.05000000    17.84000000
   C     96.10000000    58.88000000    16.99000000
   C     95.90000000    57.62000000    17.82000000
   O     96.41000000    57.34000000    18.90000000
   C     97.31000000    58.87000000    16.06000000
   C     97.45000000    59.91000000    14.97000000
   C     98.08000000    61.12000000    15.28000000
   C     96.84000000    59.79000000    13.72000000
   C     98.08000000    62.23000000    14.43000000
   C     96.88000000    60.85000000    12.80000000
   C     97.45000000    62.08000000    13.18000000
   O     97.55000000    63.11000000    12.29000000
   H     97.11000000    60.43000000    17.99000000
   H     95.26000000    59.01000000    16.31000000
   H     97.19000000    57.93000000    15.53000000
   H     98.28000000    58.75000000    16.54000000
   H     98.58000000    61.22000000    16.23000000
   H     96.40000000    58.86000000    13.40000000
   H     98.65000000    63.14000000    14.60000000
   H     96.39000000    60.71000000    11.85000000
   H     97.01000000    62.88000000    11.52000000
   N     94.94000000    56.80000000    17.36000000
   C     94.65000000    55.47000000    17.83000000
   C     95.73000000    54.43000000    17.57000000
   O     96.92000000    54.73000000    17.65000000
   C     94.02000000    55.45000000    19.22000000
   C     93.56000000    54.09000000    19.75000000
   C     92.80000000    56.34000000    19.38000000
   C     93.18000000    54.20000000    21.22000000
   H     94.35000000    57.11000000    16.60000000
   H     93.83000000    55.17000000    17.18000000
   H     94.81000000    55.83000000    19.87000000
   H     94.31000000    53.30000000    19.73000000
   H     92.72000000    53.72000000    19.16000000
   H     92.71000000    56.72000000    20.40000000
   H     93.09000000    57.17000000    18.72000000
   H     91.86000000    55.86000000    19.09000000
   H     92.82000000    53.20000000    21.43000000
   H     94.09000000    54.42000000    21.78000000
   H     92.48000000    54.97000000    21.56000000
   N     95.34000000    53.23000000    17.12000000
   C     96.27000000    52.13000000    16.98000000
   C     95.84000000    51.03000000    16.02000000
   O     96.63000000    50.16000000    15.65000000
   C     96.40000000    51.47000000    18.35000000
   O     95.22000000    50.90000000    18.88000000
   H     94.35000000    53.04000000    17.12000000
   H     97.22000000    52.59000000    16.70000000
   H     96.59000000    52.21000000    19.12000000
   H     97.18000000    50.72000000    18.32000000
   H     95.45000000    50.68000000    19.79000000
   N     94.56000000    50.99000000    15.65000000
   C     93.93000000    50.07000000    14.73000000
   C     94.12000000    48.57000000    14.94000000
   O     94.62000000    47.84000000    14.09000000
   C     94.16000000    50.57000000    13.30000000
   H     93.95000000    51.65000000    16.11000000
   H     92.84000000    50.11000000    14.79000000
   H     95.18000000    50.38000000    12.99000000
   H     93.44000000    49.96000000    12.75000000
   H     93.88000000    51.61000000    13.17000000
   N     93.64000000    47.92000000    16.00000000
   C     93.01000000    48.38000000    17.22000000
   C     91.64000000    47.83000000    17.56000000
   O     91.23000000    46.72000000    17.21000000
   C     94.02000000    48.05000000    18.32000000
   H     93.82000000    46.93000000    15.91000000
   H     92.99000000    49.47000000    17.23000000
   H     93.48000000    48.24000000    19.25000000
   H     94.27000000    46.99000000    18.26000000
   H     94.90000000    48.66000000    18.11000000
   N     90.81000000    48.40000000    18.45000000
   C     90.93000000    49.71000000    19.06000000
   C     90.01000000    50.75000000    18.43000000
   O     90.32000000    51.93000000    18.29000000
   C     90.58000000    49.51000000    20.53000000
   C     90.86000000    50.76000000    21.35000000
   C     90.67000000    50.51000000    22.84000000
   O     89.85000000    51.18000000    23.50000000
   O     91.48000000    49.71000000    23.37000000
   H     89.94000000    47.91000000    18.62000000
   H     91.97000000    50.04000000    19.03000000
   H     91.27000000    48.72000000    20.85000000
   H     89.53000000    49.26000000    20.65000000
   H     90.12000000    51.49000000    21.03000000
   H     91.84000000    51.20000000    21.20000000
   N     88.78000000    50.31000000    18.18000000
   C     87.72000000    51.07000000    17.55000000
   H     86.87300000    51.14500000    18.23200000
   H     88.08200000    52.07000000    17.31000000
   H     87.40600000    50.56800000    16.63500000
   H     88.48000000    49.43000000    18.59000000
  Ca     97.70000000    57.74000000    21.14000000
   O     96.40000000    56.09000000    22.76000000
   H     96.15000000    56.76000000    23.39000000
   H     95.99000000    55.29000000    23.07000000

Ca 1.70



