%chk=Ng-295_loop3_6.0.chk
%nprocshared=48
%mem=10GB
%nosave
#b3lyp/svp scf=(tight,noincore) Test 
#IOP(5/87=12) Density=Current Pop=(MK,readradii) iop(6/33=2) iop(6/42=6)

Ng-295_loop3_6.0 

   0   1
   C     54.29000000    53.49000000    48.08000000
   C     54.45000000    53.10000000    49.55000000
   O     53.89000000    53.80000000    50.39000000
   H     53.66800000    54.38200000    48.00700000
   H     55.27000000    53.69500000    47.64900000
   H     53.81700000    52.67200000    47.53600000
   N     55.19000000    52.05000000    49.91000000
   C     55.78000000    51.76000000    51.20000000
   C     56.97000000    52.70000000    51.36000000
   O     57.75000000    52.88000000    50.44000000
   C     56.25000000    50.31000000    51.22000000
   C     56.49000000    49.78000000    52.63000000
   O     57.21000000    48.75000000    52.68000000
   O     56.15000000    50.28000000    53.72000000
   H     55.50000000    51.53000000    49.10000000
   H     55.11000000    51.90000000    52.05000000
   H     57.12000000    50.11000000    50.60000000
   H     55.45000000    49.71000000    50.77000000
   N     57.22000000    53.20000000    52.58000000
   C     58.10000000    54.35000000    52.72000000
   C     59.26000000    54.15000000    53.68000000
   O     60.12000000    55.03000000    53.76000000
   C     57.25000000    55.59000000    52.98000000
   C     55.85000000    55.62000000    52.37000000
   C     55.18000000    56.99000000    52.39000000
   C     53.89000000    57.07000000    51.58000000
   N     53.43000000    58.46000000    51.45000000
   H     56.67000000    53.01000000    53.40000000
   H     58.59000000    54.58000000    51.77000000
   H     57.76000000    56.48000000    52.62000000
   H     57.01000000    55.63000000    54.04000000
   H     55.24000000    54.86000000    52.87000000
   H     55.95000000    55.24000000    51.35000000
   H     55.87000000    57.66000000    51.88000000
   H     54.99000000    57.36000000    53.40000000
   H     53.04000000    56.56000000    52.02000000
   H     54.00000000    56.74000000    50.55000000
   H     54.10000000    59.01000000    50.93000000
   H     52.56000000    58.51000000    50.95000000
   H     53.35000000    58.87000000    52.37000000
   N     59.18000000    53.08000000    54.47000000
   C     60.21000000    52.82000000    55.46000000
   C     61.49000000    52.14000000    54.97000000
   O     62.55000000    52.24000000    55.57000000
   C     59.63000000    51.85000000    56.48000000
   C     58.82000000    50.62000000    56.10000000
   O     59.04000000    50.11000000    54.97000000
   O     57.99000000    50.14000000    56.90000000
   H     58.29000000    52.60000000    54.54000000
   H     60.46000000    53.74000000    55.98000000
   H     59.05000000    52.41000000    57.22000000
   H     60.40000000    51.43000000    57.13000000
   N     61.51000000    51.54000000    53.78000000
   C     62.62000000    50.78000000    53.24000000
   C     62.75000000    49.33000000    53.67000000
   O     63.74000000    48.68000000    53.33000000
   H     60.67000000    51.54000000    53.23000000
   H     63.60000000    51.20000000    53.47000000
   H     62.45000000    50.75000000    52.17000000
   N     61.76000000    48.77000000    54.38000000
   C     61.61000000    47.34000000    54.54000000
   C     60.30000000    46.77000000    54.00000000
   O     59.27000000    47.44000000    54.08000000
   C     61.71000000    47.04000000    56.03000000
   C     61.74000000    45.56000000    56.41000000
   N     62.79000000    44.79000000    56.12000000
   O     60.77000000    45.11000000    57.01000000
   H     60.99000000    49.39000000    54.57000000
   H     62.42000000    46.80000000    54.05000000
   H     60.88000000    47.49000000    56.57000000
   H     62.60000000    47.38000000    56.56000000
   H     63.55000000    45.18000000    55.58000000
   H     62.96000000    43.87000000    56.51000000
   N     60.33000000    45.57000000    53.42000000
   C     59.29000000    45.13000000    52.52000000
   C     57.97000000    44.66000000    53.11000000
   O     56.96000000    44.77000000    52.41000000
   H     61.22000000    45.10000000    53.38000000
   H     59.57000000    44.20000000    52.01000000
   H     59.20000000    45.95000000    51.81000000
   N     57.96000000    44.25000000    54.38000000
   C     56.78000000    43.64000000    54.96000000
   C     55.67000000    44.66000000    55.17000000
   O     55.94000000    45.85000000    55.24000000
   C     57.13000000    42.95000000    56.27000000
   C     58.05000000    41.76000000    56.22000000
   C     59.42000000    41.89000000    56.50000000
   C     57.48000000    40.56000000    55.78000000
   C     60.26000000    40.79000000    56.30000000
   C     58.30000000    39.43000000    55.63000000
   C     59.68000000    39.58000000    55.87000000
   O     60.52000000    38.56000000    55.55000000
   H     58.81000000    44.19000000    54.92000000
   H     56.39000000    42.95000000    54.21000000
   H     56.16000000    42.68000000    56.69000000
   H     57.50000000    43.69000000    56.99000000
   H     59.85000000    42.84000000    56.78000000
   H     56.44000000    40.46000000    55.49000000
   H     61.32000000    40.90000000    56.45000000
   H     57.88000000    38.53000000    55.21000000
   H     60.08000000    37.79000000    55.20000000
   N     54.46000000    44.09000000    55.15000000
   C     53.14000000    44.65000000    55.31000000
   C     53.07000000    45.62000000    56.49000000
   O     53.98000000    45.82000000    57.29000000
   C     52.67000000    45.15000000    53.94000000
   C     52.57000000    43.93000000    53.03000000
   C     53.27000000    46.36000000    53.25000000
   C     51.88000000    44.12000000    51.68000000
   H     54.48000000    43.08000000    55.20000000
   H     52.49000000    43.83000000    55.61000000
   H     51.64000000    45.47000000    54.14000000
   H     51.90000000    43.23000000    53.53000000
   H     53.56000000    43.50000000    52.87000000
   H     53.43000000    47.22000000    53.90000000
   H     54.22000000    46.02000000    52.83000000
   H     52.61000000    46.61000000    52.42000000
   H     50.91000000    44.55000000    51.92000000
   H     52.53000000    44.72000000    51.04000000
   H     51.85000000    43.14000000    51.21000000
   N     51.86000000    46.11000000    56.76000000
   C     51.45000000    46.77000000    57.98000000
   C     50.19000000    46.22000000    58.63000000
   O     50.00000000    46.30000000    59.84000000
   C     51.32000000    48.27000000    57.75000000
   O     50.47000000    48.46000000    56.64000000
   H     51.23000000    46.07000000    55.97000000
   H     52.19000000    46.63000000    58.78000000
   H     52.27000000    48.78000000    57.58000000
   H     50.75000000    48.67000000    58.59000000
   H     50.38000000    49.38000000    56.40000000
   N     49.37000000    45.54000000    57.83000000
   C     48.05000000    44.97000000    58.06000000
   C     47.23000000    45.70000000    59.11000000
   O     46.69000000    45.09000000    60.03000000
   C     48.18000000    43.47000000    58.29000000
   H     49.65000000    45.52000000    56.86000000
   H     47.53000000    45.15000000    57.12000000
   H     48.73000000    43.31000000    59.22000000
   H     47.23000000    42.94000000    58.34000000
   H     48.87000000    43.07000000    57.54000000
   N     47.01000000    47.02000000    59.08000000
   C     47.17000000    47.94000000    57.97000000
   C     45.98000000    47.95000000    57.02000000
   O     44.83000000    47.82000000    57.43000000
   C     47.47000000    49.31000000    58.55000000
   H     46.42000000    47.29000000    59.85000000
   H     48.05000000    47.68000000    57.38000000
   H     48.48000000    49.33000000    58.95000000
   H     47.49000000    50.11000000    57.80000000
   H     46.72000000    49.53000000    59.30000000
   N     46.03000000    48.17000000    55.70000000
   C     47.20000000    48.23000000    54.84000000
   C     47.54000000    46.94000000    54.12000000
   O     48.70000000    46.66000000    53.84000000
   C     47.18000000    49.33000000    53.78000000
   C     47.43000000    50.72000000    54.36000000
   C     47.57000000    51.80000000    53.30000000
   O     46.54000000    52.19000000    52.69000000
   O     48.67000000    52.24000000    52.90000000
   H     45.15000000    48.18000000    55.21000000
   H     48.10000000    48.45000000    55.42000000
   H     46.21000000    49.24000000    53.29000000
   H     47.94000000    49.09000000    53.04000000
   H     48.30000000    50.81000000    55.02000000
   H     46.57000000    51.04000000    54.94000000
   N     46.52000000    46.21000000    53.66000000
   C     46.65000000    45.22000000    52.61000000
   H     47.69500000    44.92400000    52.51700000
   H     46.04600000    44.34600000    52.85700000
   H     46.30800000    45.64400000    51.66600000
   H     45.59000000    46.57000000    53.81000000
  Ca     57.06000000    48.35000000    55.26000000
   O     54.51000000    48.93000000    55.44000000
   H     53.97000000    49.21000000    54.70000000
   H     54.19000000    49.46000000    56.18000000

Ca 1.70



