%chk=Ng-293_loop3_11.0.chk
%nprocshared=48
%mem=10GB
%nosave
#b3lyp/svp scf=(tight,noincore) Test 
#IOP(5/87=12) Density=Current Pop=(MK,readradii) iop(6/33=2) iop(6/42=6)

Ng-293_loop3_11.0 

   0   1
   C     42.80000000    79.62000000    68.33000000
   C     43.01000000    79.73000000    66.83000000
   O     43.54000000    80.75000000    66.38000000
   H     41.74700000    79.42600000    68.53600000
   H     43.40400000    78.80200000    68.72300000
   H     43.09700000    80.55300000    68.80800000
   N     42.36000000    78.85000000    66.08000000
   C     42.35000000    78.96000000    64.63000000
   C     42.42000000    77.64000000    63.89000000
   O     42.06000000    76.59000000    64.41000000
   C     41.03000000    79.64000000    64.26000000
   C     41.05000000    80.14000000    62.82000000
   O     42.12000000    80.60000000    62.35000000
   O     40.05000000    79.97000000    62.09000000
   H     41.96000000    77.98000000    66.40000000
   H     43.15000000    79.62000000    64.30000000
   H     40.75000000    80.52000000    64.84000000
   H     40.25000000    78.92000000    64.48000000
   N     42.96000000    77.61000000    62.67000000
   C     42.96000000    76.57000000    61.65000000
   C     41.60000000    76.07000000    61.19000000
   O     40.64000000    76.82000000    61.30000000
   C     43.90000000    75.42000000    61.99000000
   C     45.30000000    75.78000000    62.49000000
   C     46.13000000    76.36000000    61.35000000
   C     47.36000000    77.13000000    61.81000000
   N     48.15000000    77.52000000    60.63000000
   H     43.43000000    78.46000000    62.39000000
   H     43.21000000    77.16000000    60.77000000
   H     44.01000000    74.86000000    61.06000000
   H     43.50000000    74.71000000    62.70000000
   H     45.84000000    74.93000000    62.90000000
   H     45.18000000    76.51000000    63.28000000
   H     45.63000000    77.08000000    60.70000000
   H     46.37000000    75.47000000    60.75000000
   H     47.87000000    76.40000000    62.44000000
   H     47.17000000    78.04000000    62.39000000
   H     47.64000000    78.27000000    60.18000000
   H     49.08000000    77.73000000    60.95000000
   H     48.27000000    76.82000000    59.92000000
   N     41.46000000    74.89000000    60.58000000
   C     40.32000000    74.58000000    59.73000000
   C     39.56000000    73.28000000    59.95000000
   O     38.81000000    72.85000000    59.08000000
   C     40.64000000    74.90000000    58.28000000
   C     41.60000000    73.92000000    57.62000000
   O     42.53000000    73.42000000    58.29000000
   O     41.38000000    73.51000000    56.45000000
   H     42.29000000    74.35000000    60.41000000
   H     39.56000000    75.32000000    59.98000000
   H     41.08000000    75.90000000    58.26000000
   H     39.68000000    74.80000000    57.77000000
   N     39.95000000    72.58000000    61.02000000
   C     39.48000000    71.28000000    61.44000000
   C     38.00000000    71.33000000    61.81000000
   O     37.42000000    72.35000000    62.18000000
   H     40.66000000    72.95000000    61.63000000
   H     40.09000000    70.83000000    62.22000000
   H     39.63000000    70.60000000    60.60000000
   N     37.34000000    70.19000000    61.64000000
   C     35.90000000    70.01000000    61.67000000
   C     35.54000000    68.69000000    62.33000000
   O     36.20000000    67.69000000    62.05000000
   C     35.43000000    70.07000000    60.21000000
   C     33.99000000    69.65000000    59.98000000
   N     33.04000000    70.45000000    60.45000000
   O     33.68000000    68.55000000    59.52000000
   H     37.91000000    69.39000000    61.40000000
   H     35.50000000    70.87000000    62.20000000
   H     36.07000000    69.33000000    59.73000000
   H     35.67000000    71.07000000    59.84000000
   H     33.23000000    71.37000000    60.81000000
   H     32.07000000    70.16000000    60.49000000
   N     34.50000000    68.58000000    63.17000000
   C     34.01000000    67.33000000    63.71000000
   C     34.95000000    66.63000000    64.68000000
   O     35.43000000    67.27000000    65.62000000
   H     33.85000000    69.35000000    63.26000000
   H     33.81000000    66.60000000    62.93000000
   H     33.03000000    67.51000000    64.14000000
   N     35.27000000    65.36000000    64.42000000
   C     36.15000000    64.53000000    65.23000000
   C     37.61000000    64.95000000    65.27000000
   O     38.43000000    64.58000000    66.11000000
   C     35.51000000    64.12000000    66.55000000
   C     34.04000000    63.79000000    66.41000000
   C     33.16000000    64.72000000    66.99000000
   C     33.57000000    62.68000000    65.72000000
   C     31.82000000    64.35000000    67.11000000
   C     32.19000000    62.50000000    65.51000000
   C     31.33000000    63.31000000    66.28000000
   O     29.98000000    63.22000000    66.18000000
   H     34.71000000    64.85000000    63.75000000
   H     36.24000000    63.57000000    64.72000000
   H     35.57000000    64.95000000    67.25000000
   H     36.04000000    63.21000000    66.84000000
   H     33.53000000    65.63000000    67.43000000
   H     34.28000000    62.01000000    65.25000000
   H     31.20000000    64.92000000    67.78000000
   H     31.88000000    61.71000000    64.85000000
   H     29.75000000    62.54000000    65.55000000
   N     38.00000000    65.72000000    64.25000000
   C     39.34000000    66.03000000    63.79000000
   C     40.14000000    64.82000000    63.32000000
   O     40.83000000    64.93000000    62.31000000
   C     40.08000000    66.81000000    64.87000000
   C     39.28000000    67.84000000    65.66000000
   C     41.34000000    67.42000000    64.24000000
   C     38.72000000    68.98000000    64.82000000
   H     37.30000000    66.16000000    63.67000000
   H     39.32000000    66.75000000    62.97000000
   H     40.43000000    66.10000000    65.62000000
   H     39.82000000    68.25000000    66.51000000
   H     38.44000000    67.38000000    66.17000000
   H     42.24000000    66.84000000    64.04000000
   H     41.16000000    67.73000000    63.21000000
   H     41.72000000    68.20000000    64.89000000
   H     37.93000000    68.58000000    64.18000000
   H     38.14000000    69.56000000    65.54000000
   H     39.47000000    69.52000000    64.25000000
   N     40.04000000    63.65000000    63.95000000
   C     40.79000000    62.47000000    63.56000000
   C     42.26000000    62.57000000    63.91000000
   O     43.06000000    61.98000000    63.20000000
   C     40.11000000    61.32000000    64.30000000
   O     39.86000000    61.55000000    65.67000000
   H     39.41000000    63.54000000    64.73000000
   H     40.68000000    62.30000000    62.49000000
   H     40.70000000    60.43000000    64.06000000
   H     39.17000000    61.13000000    63.79000000
   H     38.97000000    61.23000000    65.86000000
   N     42.68000000    63.33000000    64.93000000
   C     44.06000000    63.63000000    65.27000000
   C     44.91000000    64.05000000    64.08000000
   O     46.06000000    63.71000000    63.81000000
   C     44.66000000    62.45000000    66.02000000
   H     41.98000000    63.65000000    65.59000000
   H     44.04000000    64.54000000    65.87000000
   H     45.70000000    62.65000000    66.26000000
   H     44.11000000    62.25000000    66.94000000
   H     44.59000000    61.56000000    65.40000000
   N     44.30000000    64.88000000    63.23000000
   C     44.93000000    65.46000000    62.06000000
   C     45.44000000    66.85000000    62.41000000
   O     44.85000000    67.56000000    63.22000000
   C     43.85000000    65.43000000    60.99000000
   H     43.30000000    65.00000000    63.36000000
   H     45.76000000    64.87000000    61.67000000
   H     44.41000000    65.72000000    60.10000000
   H     43.38000000    64.45000000    60.89000000
   H     43.06000000    66.10000000    61.33000000
   N     46.58000000    67.20000000    61.82000000
   C     47.13000000    68.54000000    61.75000000
   C     47.58000000    69.14000000    63.08000000
   O     47.66000000    70.35000000    63.31000000
   C     46.19000000    69.42000000    60.94000000
   C     46.02000000    68.99000000    59.48000000
   C     44.96000000    69.82000000    58.76000000
   O     43.92000000    69.28000000    58.33000000
   O     45.16000000    71.03000000    58.56000000
   H     46.91000000    66.57000000    61.10000000
   H     48.07000000    68.47000000    61.21000000
   H     46.44000000    70.49000000    60.97000000
   H     45.22000000    69.42000000    61.43000000
   H     45.90000000    67.92000000    59.35000000
   H     46.97000000    69.30000000    59.05000000
   N     47.75000000    68.25000000    64.05000000
   C     47.93000000    68.65000000    65.44000000
   H     48.60800000    69.50200000    65.48700000
   H     46.96600000    68.92900000    65.86600000
   H     48.35200000    67.81900000    66.00600000
   H     47.63000000    67.26000000    63.86000000
  Ca     43.24000000    71.42000000    56.73000000
   O     44.17000000    69.57000000    55.12000000
   H     44.42000000    69.55000000    54.20000000
   H     44.63000000    68.83000000    55.52000000

Ca 1.70



