%chk=Ng-295_loop3_22.0.chk
%nprocshared=48
%mem=10GB
%nosave
#b3lyp/svp scf=(tight,noincore) Test 
#IOP(5/87=12) Density=Current Pop=(MK,readradii) iop(6/33=2) iop(6/42=6)

Ng-295_loop3_22.0 

   0   1
   C      9.27000000    76.00000000    68.52000000
   C      8.45000000    75.12000000    67.60000000
   O      7.22000000    75.14000000    67.51000000
   H     10.17700000    76.31700000    68.00500000
   H      8.68600000    76.87700000    68.80000000
   H      9.53800000    75.44000000    69.41600000
   N      9.06000000    74.09000000    67.02000000
   C      8.49000000    73.02000000    66.22000000
   C      8.08000000    71.79000000    67.02000000
   O      8.81000000    70.81000000    67.16000000
   C      9.46000000    72.72000000    65.08000000
   C      8.73000000    72.15000000    63.87000000
   O      8.07000000    72.85000000    63.07000000
   O      8.62000000    70.93000000    63.62000000
   H     10.06000000    74.07000000    67.16000000
   H      7.66000000    73.55000000    65.74000000
   H     10.26000000    72.06000000    65.42000000
   H      9.96000000    73.66000000    64.86000000
   N      6.84000000    71.80000000    67.50000000
   C      6.27000000    70.95000000    68.53000000
   C      6.06000000    69.48000000    68.21000000
   O      5.59000000    68.73000000    69.06000000
   C      4.98000000    71.59000000    69.02000000
   C      5.13000000    73.06000000    69.40000000
   C      3.90000000    73.53000000    70.17000000
   C      4.01000000    74.96000000    70.71000000
   N      5.14000000    75.13000000    71.64000000
   H      6.24000000    72.55000000    67.17000000
   H      6.94000000    70.86000000    69.38000000
   H      4.63000000    71.03000000    69.89000000
   H      4.19000000    71.53000000    68.28000000
   H      5.29000000    73.61000000    68.47000000
   H      6.00000000    73.09000000    70.05000000
   H      3.62000000    72.94000000    71.04000000
   H      3.00000000    73.45000000    69.57000000
   H      3.06000000    75.33000000    71.11000000
   H      4.15000000    75.61000000    69.84000000
   H      5.02000000    74.50000000    72.42000000
   H      6.04000000    75.01000000    71.22000000
   H      5.16000000    76.09000000    71.94000000
   N      6.45000000    68.97000000    67.03000000
   C      6.37000000    67.58000000    66.63000000
   C      7.69000000    66.94000000    66.24000000
   O      7.93000000    65.73000000    66.20000000
   C      5.19000000    67.36000000    65.69000000
   C      4.95000000    68.43000000    64.63000000
   O      3.85000000    68.53000000    64.04000000
   O      5.84000000    69.19000000    64.21000000
   H      6.98000000    69.59000000    66.44000000
   H      6.12000000    66.95000000    67.49000000
   H      4.32000000    67.17000000    66.31000000
   H      5.45000000    66.45000000    65.15000000
   N      8.64000000    67.81000000    65.91000000
   C      9.94000000    67.46000000    65.36000000
   C      9.73000000    66.79000000    64.01000000
   O     10.50000000    65.90000000    63.64000000
   H      8.39000000    68.79000000    65.90000000
   H     10.40000000    66.74000000    66.03000000
   H     10.64000000    68.27000000    65.20000000
   N      8.73000000    67.23000000    63.24000000
   C      8.51000000    66.72000000    61.90000000
   C      8.70000000    67.86000000    60.91000000
   O      8.13000000    68.93000000    61.10000000
   C      7.07000000    66.22000000    61.86000000
   C      6.57000000    65.66000000    60.53000000
   N      5.77000000    64.60000000    60.59000000
   O      7.01000000    65.98000000    59.43000000
   H      8.06000000    67.87000000    63.63000000
   H      9.22000000    65.93000000    61.64000000
   H      6.39000000    66.98000000    62.25000000
   H      7.05000000    65.32000000    62.48000000
   H      5.36000000    64.27000000    61.46000000
   H      5.37000000    64.27000000    59.72000000
   N      9.61000000    67.63000000    59.96000000
   C     10.15000000    68.59000000    59.02000000
   C     10.34000000    68.11000000    57.59000000
   O     10.83000000    68.83000000    56.73000000
   H     10.05000000    66.72000000    59.95000000
   H     11.07000000    69.04000000    59.39000000
   H      9.48000000    69.45000000    59.10000000
   N      9.89000000    66.88000000    57.32000000
   C     10.12000000    66.41000000    55.97000000
   C      9.15000000    66.99000000    54.95000000
   O      7.97000000    67.04000000    55.30000000
   C     10.03000000    64.89000000    55.97000000
   C     10.71000000    64.24000000    54.80000000
   C     10.02000000    63.73000000    53.69000000
   C     12.10000000    64.39000000    54.69000000
   C     10.71000000    63.22000000    52.59000000
   C     12.81000000    63.93000000    53.57000000
   C     12.12000000    63.31000000    52.51000000
   O     12.77000000    62.97000000    51.37000000
   H      9.64000000    66.21000000    58.03000000
   H     11.12000000    66.71000000    55.65000000
   H      8.97000000    64.64000000    55.99000000
   H     10.43000000    64.44000000    56.88000000
   H      8.96000000    63.54000000    53.82000000
   H     12.62000000    64.90000000    55.49000000
   H     10.15000000    62.87000000    51.73000000
   H     13.82000000    64.27000000    53.44000000
   H     13.69000000    63.22000000    51.47000000
   N      9.60000000    67.41000000    53.76000000
   C      8.89000000    68.09000000    52.69000000
   C      7.94000000    67.19000000    51.92000000
   O      7.28000000    66.30000000    52.45000000
   C      8.28000000    69.47000000    52.95000000
   C      9.14000000    70.43000000    53.77000000
   C      6.86000000    69.44000000    53.49000000
   C     10.46000000    70.73000000    53.07000000
   H     10.55000000    67.19000000    53.50000000
   H      9.64000000    68.22000000    51.91000000
   H      8.22000000    69.88000000    51.95000000
   H      9.22000000    70.08000000    54.80000000
   H      8.61000000    71.39000000    53.76000000
   H      6.89000000    68.93000000    54.46000000
   H      6.48000000    70.46000000    53.47000000
   H      6.19000000    68.83000000    52.88000000
   H     11.11000000    71.35000000    53.69000000
   H     11.11000000    69.85000000    53.07000000
   H     10.20000000    71.12000000    52.09000000
   N      7.67000000    67.49000000    50.65000000
   C      6.76000000    66.71000000    49.84000000
   C      7.15000000    66.72000000    48.37000000
   O      6.43000000    66.10000000    47.58000000
   C      5.36000000    67.23000000    50.13000000
   O      5.21000000    68.54000000    49.64000000
   H      8.28000000    68.15000000    50.19000000
   H      6.73000000    65.66000000    50.13000000
   H      5.30000000    67.10000000    51.21000000
   H      4.57000000    66.55000000    49.80000000
   H      4.94000000    68.68000000    48.73000000
   N      8.24000000    67.36000000    47.95000000
   C      8.77000000    67.48000000    46.61000000
   C      7.74000000    67.94000000    45.58000000
   O      7.17000000    67.12000000    44.85000000
   C      9.31000000    66.11000000    46.19000000
   H      8.75000000    67.74000000    48.74000000
   H      9.64000000    68.14000000    46.56000000
   H      8.64000000    65.29000000    46.42000000
   H      9.39000000    66.14000000    45.11000000
   H     10.27000000    65.94000000    46.69000000
   N      7.45000000    69.24000000    45.46000000
   C      7.91000000    70.31000000    46.32000000
   C      8.52000000    71.46000000    45.54000000
   O      8.10000000    71.66000000    44.40000000
   C      6.75000000    70.79000000    47.20000000
   H      6.77000000    69.50000000    44.77000000
   H      8.78000000    69.96000000    46.89000000
   H      7.05000000    71.36000000    48.08000000
   H      6.13000000    71.53000000    46.70000000
   H      6.18000000    69.92000000    47.53000000
   N      9.38000000    72.37000000    46.01000000
   C      9.77000000    72.55000000    47.39000000
   C     11.23000000    72.94000000    47.54000000
   O     11.70000000    72.92000000    48.67000000
   C      8.86000000    73.52000000    48.15000000
   C      8.75000000    73.28000000    49.65000000
   C      8.15000000    74.50000000    50.33000000
   O      8.84000000    75.49000000    50.64000000
   O      6.91000000    74.47000000    50.47000000
   H      9.58000000    73.14000000    45.38000000
   H      9.70000000    71.61000000    47.94000000
   H      7.84000000    73.48000000    47.77000000
   H      9.12000000    74.55000000    47.90000000
   H      9.75000000    73.15000000    50.07000000
   H      8.38000000    72.31000000    50.00000000
   N     11.95000000    73.27000000    46.46000000
   C     13.30000000    73.79000000    46.54000000
   H     13.95600000    73.19400000    45.90600000
   H     13.31100000    74.82600000    46.20200000
   H     13.64900000    73.74000000    47.57100000
   H     11.45000000    73.36000000    45.58000000
  Ca      6.41000000    71.03000000    62.20000000
   O      7.81000000    71.51000000    60.11000000
   H      7.75000000    71.42000000    59.16000000
   H      8.72000000    71.77000000    60.27000000

Ca 1.70



