%chk=Ng-295_loop3_12.0.chk
%nprocshared=48
%mem=10GB
%nosave
#b3lyp/svp scf=(tight,noincore) Test 
#IOP(5/87=12) Density=Current Pop=(MK,readradii) iop(6/33=2) iop(6/42=6)

Ng-295_loop3_12.0 

   0   1
   C     18.46900000    75.75000000    33.66000000
   C     19.03900000    74.39000000    34.02000000
   O     19.62900000    74.23000000    35.09000000
   H     17.52600000    75.89900000    34.18700000
   H     19.17400000    76.52900000    33.95100000
   H     18.29500000    75.79900000    32.58500000
   N     18.85900000    73.33000000    33.23000000
   C     19.43900000    72.04000000    33.54000000
   C     20.92900000    71.99000000    33.28000000
   O     21.44900000    72.18000000    32.18000000
   C     18.78900000    70.87000000    32.81000000
   C     19.15900000    69.49000000    33.35000000
   O     20.27900000    69.20000000    33.83000000
   O     18.22900000    68.76000000    33.76000000
   H     18.23900000    73.40000000    32.43000000
   H     19.22900000    71.94000000    34.60000000
   H     19.05900000    70.79000000    31.75000000
   H     17.70900000    70.97000000    32.91000000
   N     21.66900000    71.80000000    34.37000000
   C     23.10900000    71.91000000    34.42000000
   C     23.95900000    70.82000000    33.77000000
   O     25.01900000    71.08000000    33.21000000
   C     23.68900000    72.18000000    35.80000000
   C     23.19900000    71.18000000    36.84000000
   C     23.21900000    71.78000000    38.24000000
   C     22.37900000    70.92000000    39.18000000
   N     22.17900000    71.65000000    40.43000000
   H     21.17900000    71.78000000    35.26000000
   H     23.38900000    72.76000000    33.81000000
   H     23.40900000    73.20000000    36.07000000
   H     24.77900000    72.08000000    35.81000000
   H     23.91900000    70.36000000    36.79000000
   H     22.16900000    70.88000000    36.62000000
   H     22.77900000    72.77000000    38.14000000
   H     24.26900000    71.83000000    38.53000000
   H     22.86900000    69.95000000    39.22000000
   H     21.43900000    70.70000000    38.66000000
   H     21.53900000    71.21000000    41.08000000
   H     23.00900000    71.74000000    41.00000000
   H     21.83900000    72.58000000    40.25000000
   N     23.41900000    69.60000000    33.93000000
   C     23.93900000    68.37000000    33.39000000
   C     23.17900000    67.91000000    32.15000000
   O     23.65900000    67.09000000    31.38000000
   C     23.85900000    67.26000000    34.44000000
   C     22.43900000    67.30000000    34.98000000
   O     21.61900000    66.49000000    34.48000000
   O     22.18900000    68.08000000    35.93000000
   H     22.52900000    69.53000000    34.40000000
   H     24.97900000    68.52000000    33.10000000
   H     24.63900000    67.49000000    35.15000000
   H     23.97900000    66.29000000    33.95000000
   N     21.92900000    68.34000000    31.93000000
   C     21.17900000    68.05000000    30.73000000
   C     20.13900000    66.95000000    30.82000000
   O     19.21900000    66.82000000    30.02000000
   H     21.55900000    69.02000000    32.58000000
   H     21.94900000    67.73000000    30.02000000
   H     20.71900000    68.99000000    30.43000000
   N     20.29900000    66.16000000    31.89000000
   C     19.48900000    64.98000000    32.13000000
   C     18.29900000    65.21000000    33.06000000
   O     18.51900000    65.76000000    34.13000000
   C     20.41900000    63.83000000    32.50000000
   C     19.66900000    62.53000000    32.23000000
   N     20.34900000    61.38000000    32.26000000
   O     18.45900000    62.45000000    32.02000000
   H     20.93900000    66.51000000    32.58000000
   H     19.09900000    64.74000000    31.14000000
   H     20.62900000    63.84000000    33.57000000
   H     21.32900000    63.86000000    31.89000000
   H     21.28900000    61.37000000    32.63000000
   H     19.88900000    60.52000000    32.01000000
   N     17.09900000    64.83000000    32.62000000
   C     15.97900000    64.98000000    33.53000000
   C     15.81900000    63.87000000    34.55000000
   O     15.21900000    64.01000000    35.61000000
   H     17.03900000    64.74000000    31.61000000
   H     15.06900000    65.12000000    32.94000000
   H     16.08900000    65.96000000    33.99000000
   N     16.43900000    62.71000000    34.30000000
   C     16.35900000    61.55000000    35.16000000
   C     16.96900000    61.88000000    36.51000000
   O     18.05900000    62.45000000    36.50000000
   C     17.16900000    60.42000000    34.52000000
   C     17.32900000    59.11000000    35.24000000
   C     18.38900000    58.82000000    36.11000000
   C     16.20900000    58.26000000    35.26000000
   C     18.30900000    57.66000000    36.90000000
   C     16.08900000    57.12000000    36.05000000
   C     17.18900000    56.82000000    36.88000000
   O     17.12900000    55.63000000    37.55000000
   H     17.02900000    62.62000000    33.49000000
   H     15.32900000    61.25000000    35.31000000
   H     18.20900000    60.73000000    34.35000000
   H     16.67900000    60.22000000    33.57000000
   H     19.24900000    59.46000000    35.99000000
   H     15.31900000    58.49000000    34.70000000
   H     19.20900000    57.30000000    37.39000000
   H     15.21900000    56.48000000    36.04000000
   H     16.24900000    55.29000000    37.36000000
   N     16.27900000    61.41000000    37.55000000
   C     16.67900000    61.27000000    38.94000000
   C     17.93900000    60.48000000    39.25000000
   O     18.91900000    60.53000000    38.51000000
   C     16.60900000    62.63000000    39.63000000
   C     17.95900000    63.29000000    39.90000000
   C     15.87900000    62.38000000    40.95000000
   C     17.91900000    64.81000000    39.97000000
   H     15.45900000    60.86000000    37.32000000
   H     15.86900000    60.66000000    39.34000000
   H     15.97900000    63.27000000    39.01000000
   H     18.61900000    63.10000000    39.06000000
   H     18.48900000    62.89000000    40.77000000
   H     15.00900000    61.72000000    40.94000000
   H     16.42900000    61.78000000    41.67000000
   H     15.62900000    63.33000000    41.44000000
   H     18.89900000    65.27000000    40.03000000
   H     17.35900000    65.18000000    39.11000000
   H     17.36900000    65.13000000    40.86000000
   N     17.93900000    59.82000000    40.41000000
   C     19.02900000    59.04000000    40.95000000
   C     18.71900000    57.77000000    41.72000000
   O     19.63900000    57.06000000    42.13000000
   C     19.87900000    60.00000000    41.78000000
   O     19.11900000    60.62000000    42.79000000
   H     17.06900000    59.96000000    40.91000000
   H     19.62900000    58.72000000    40.10000000
   H     20.22900000    60.78000000    41.10000000
   H     20.75900000    59.51000000    42.20000000
   H     19.78900000    61.12000000    43.27000000
   N     17.43900000    57.44000000    41.90000000
   C     16.84900000    56.28000000    42.54000000
   C     17.32900000    56.02000000    43.96000000
   O     17.42900000    54.83000000    44.25000000
   C     17.10900000    55.16000000    41.54000000
   H     16.73900000    58.15000000    41.74000000
   H     15.79900000    56.55000000    42.72000000
   H     16.93900000    55.55000000    40.53000000
   H     18.10900000    54.81000000    41.79000000
   H     16.45900000    54.31000000    41.70000000
   N     17.60900000    56.87000000    44.95000000
   C     17.75900000    58.31000000    44.96000000
   C     16.95900000    59.01000000    46.06000000
   O     16.76900000    58.42000000    47.12000000
   C     19.24900000    58.56000000    45.18000000
   H     17.70900000    56.44000000    45.85000000
   H     17.34900000    58.77000000    44.06000000
   H     19.67900000    58.06000000    46.04000000
   H     19.80900000    58.11000000    44.36000000
   H     19.39900000    59.64000000    45.25000000
   N     16.49900000    60.26000000    45.95000000
   C     16.38900000    61.18000000    44.84000000
   C     14.91900000    61.55000000    44.71000000
   O     14.37900000    61.45000000    43.61000000
   C     17.23900000    62.41000000    45.12000000
   C     17.03900000    63.52000000    44.09000000
   C     17.94900000    64.72000000    44.33000000
   O     19.15900000    64.56000000    44.08000000
   O     17.47900000    65.78000000    44.80000000
   H     16.16900000    60.63000000    46.83000000
   H     16.81900000    60.78000000    43.92000000
   H     18.28900000    62.13000000    45.19000000
   H     17.10900000    62.73000000    46.16000000
   H     16.00900000    63.85000000    44.17000000
   H     17.25900000    63.10000000    43.11000000
   N     14.12900000    61.88000000    45.74000000
   C     12.68900000    62.04000000    45.65000000
   H     12.24000000    61.83500000    46.62200000
   H     12.45400000    63.06100000    45.35000000
   H     12.29100000    61.34400000    44.91200000
   H     14.63900000    62.10000000    46.58000000
  Ca     19.61000000    67.62000000    35.67000000
   O     20.10000000    65.17000000    36.71000000
   H     20.50000000    65.14000000    37.58000000
   H     19.61000000    64.36000000    36.64000000

Ca 1.70



