%chk=Ng-293_loop3_81.0.chk
%nprocshared=48
%mem=10GB
%nosave
#b3lyp/svp scf=(tight,noincore) Test 
#IOP(5/87=12) Density=Current Pop=(MK,readradii) iop(6/33=2) iop(6/42=6)

Ng-293_loop3_81.0 

   0   1
   C     67.08000000    21.30000000     8.38000000
   C     67.21000000    22.20000000     7.17000000
   O     66.35000000    22.12000000     6.29000000
   H     66.02900000    21.05800000     8.54100000
   H     67.64200000    20.38100000     8.21200000
   H     67.47300000    21.81200000     9.25800000
   N     68.26000000    23.02000000     7.02000000
   C     68.43000000    24.14000000     6.11000000
   C     67.78000000    25.41000000     6.63000000
   O     67.88000000    25.80000000     7.79000000
   C     69.83000000    24.52000000     5.65000000
   C     70.83000000    24.35000000     6.79000000
   O     71.21000000    23.19000000     7.04000000
   O     71.14000000    25.31000000     7.52000000
   H     68.94000000    23.00000000     7.77000000
   H     67.96000000    23.83000000     5.18000000
   H     69.86000000    25.56000000     5.33000000
   H     70.07000000    23.93000000     4.76000000
   N     67.24000000    26.15000000     5.65000000
   C     66.34000000    27.28000000     5.57000000
   C     66.89000000    28.61000000     6.06000000
   O     66.86000000    29.55000000     5.27000000
   C     65.02000000    26.86000000     6.21000000
   C     64.04000000    28.03000000     6.11000000
   C     62.70000000    27.66000000     6.73000000
   C     61.59000000    28.69000000     6.54000000
   N     60.38000000    28.16000000     7.18000000
   H     67.31000000    25.63000000     4.79000000
   H     66.06000000    27.55000000     4.55000000
   H     65.19000000    26.57000000     7.25000000
   H     64.62000000    26.03000000     5.62000000
   H     63.98000000    28.37000000     5.08000000
   H     64.36000000    28.81000000     6.80000000
   H     62.79000000    27.47000000     7.80000000
   H     62.30000000    26.72000000     6.34000000
   H     61.33000000    28.88000000     5.49000000
   H     61.95000000    29.59000000     7.03000000
   H     60.14000000    27.29000000     6.73000000
   H     60.55000000    27.97000000     8.16000000
   H     59.56000000    28.75000000     7.19000000
   N     67.57000000    28.65000000     7.21000000
   C     68.13000000    29.84000000     7.82000000
   C     69.32000000    29.51000000     8.70000000
   O     69.32000000    28.48000000     9.37000000
   C     67.06000000    30.58000000     8.62000000
   C     67.48000000    31.91000000     9.24000000
   O     68.22000000    32.69000000     8.60000000
   O     67.30000000    32.11000000    10.46000000
   H     67.61000000    27.84000000     7.82000000
   H     68.50000000    30.50000000     7.04000000
   H     66.81000000    29.88000000     9.41000000
   H     66.19000000    30.70000000     7.98000000
   N     70.31000000    30.40000000     8.83000000
   C     71.40000000    30.25000000     9.78000000
   C     71.02000000    30.56000000    11.22000000
   O     70.14000000    31.39000000    11.44000000
   H     70.22000000    31.24000000     8.29000000
   H     72.29000000    30.80000000     9.50000000
   H     71.74000000    29.22000000     9.73000000
   N     71.76000000    29.91000000    12.13000000
   C     71.51000000    29.89000000    13.55000000
   C     72.35000000    30.93000000    14.29000000
   O     71.80000000    31.70000000    15.07000000
   C     71.78000000    28.47000000    14.05000000
   C     71.04000000    27.47000000    13.18000000
   N     71.80000000    26.65000000    12.45000000
   O     69.81000000    27.40000000    13.11000000
   H     72.62000000    29.48000000    11.83000000
   H     70.47000000    30.21000000    13.66000000
   H     71.33000000    28.34000000    15.03000000
   H     72.85000000    28.27000000    14.05000000
   H     72.79000000    26.51000000    12.62000000
   H     71.33000000    26.09000000    11.75000000
   N     73.65000000    31.08000000    14.03000000
   C     74.55000000    31.95000000    14.75000000
   C     74.62000000    31.77000000    16.26000000
   O     74.54000000    30.63000000    16.70000000
   H     74.05000000    30.36000000    13.45000000
   H     74.23000000    32.97000000    14.52000000
   H     75.55000000    31.74000000    14.37000000
   N     74.74000000    32.83000000    17.07000000
   C     74.79000000    32.93000000    18.52000000
   C     73.58000000    32.44000000    19.30000000
   O     73.58000000    32.68000000    20.51000000
   C     76.00000000    32.18000000    19.07000000
   C     77.35000000    32.83000000    18.88000000
   C     78.09000000    32.71000000    17.69000000
   C     77.91000000    33.56000000    19.93000000
   C     79.39000000    33.21000000    17.53000000
   C     79.16000000    34.18000000    19.74000000
   C     79.91000000    34.02000000    18.56000000
   O     81.10000000    34.68000000    18.51000000
   H     75.11000000    33.63000000    16.58000000
   H     75.04000000    33.97000000    18.72000000
   H     76.05000000    31.18000000    18.65000000
   H     75.85000000    32.08000000    20.14000000
   H     77.73000000    32.08000000    16.89000000
   H     77.29000000    33.76000000    20.79000000
   H     80.01000000    32.97000000    16.68000000
   H     79.55000000    34.87000000    20.46000000
   H     81.28000000    35.21000000    19.29000000
   N     72.57000000    31.86000000    18.66000000
   C     71.34000000    31.39000000    19.26000000
   C     70.53000000    32.54000000    19.85000000
   O     69.31000000    32.37000000    19.90000000
   C     71.59000000    30.20000000    20.17000000
   C     72.29000000    29.04000000    19.48000000
   C     70.34000000    29.65000000    20.86000000
   C     72.77000000    27.86000000    20.32000000
   H     72.60000000    31.80000000    17.65000000
   H     70.74000000    31.00000000    18.43000000
   H     72.22000000    30.58000000    20.97000000
   H     73.19000000    29.34000000    18.93000000
   H     71.67000000    28.69000000    18.66000000
   H     69.50000000    29.37000000    20.23000000
   H     70.41000000    28.71000000    21.41000000
   H     69.86000000    30.46000000    21.41000000
   H     73.36000000    27.19000000    19.70000000
   H     73.43000000    28.17000000    21.13000000
   H     71.96000000    27.32000000    20.81000000
   N     71.08000000    33.64000000    20.36000000
   C     70.48000000    34.95000000    20.47000000
   C     69.52000000    35.08000000    21.64000000
   O     68.91000000    36.15000000    21.69000000
   C     71.57000000    36.00000000    20.66000000
   O     72.55000000    35.77000000    19.68000000
   H     72.08000000    33.72000000    20.31000000
   H     69.86000000    35.23000000    19.61000000
   H     71.97000000    35.70000000    21.63000000
   H     71.14000000    36.98000000    20.43000000
   H     73.40000000    36.05000000    20.02000000
   N     69.33000000    34.01000000    22.42000000
   C     68.06000000    33.56000000    22.96000000
   C     66.89000000    34.05000000    22.13000000
   O     65.99000000    34.76000000    22.60000000
   C     68.01000000    34.12000000    24.38000000
   H     70.08000000    33.33000000    22.44000000
   H     67.97000000    32.48000000    23.01000000
   H     67.26000000    33.63000000    25.00000000
   H     68.95000000    33.87000000    24.89000000
   H     67.91000000    35.20000000    24.44000000
   N     66.94000000    33.69000000    20.85000000
   C     66.11000000    34.26000000    19.81000000
   C     65.72000000    33.27000000    18.73000000
   O     66.51000000    32.34000000    18.56000000
   C     66.77000000    35.48000000    19.17000000
   H     67.67000000    33.07000000    20.50000000
   H     65.17000000    34.57000000    20.28000000
   H     66.21000000    35.80000000    18.29000000
   H     66.84000000    36.30000000    19.89000000
   H     67.77000000    35.22000000    18.80000000
   N     64.61000000    33.58000000    18.06000000
   C     64.01000000    32.89000000    16.95000000
   C     63.70000000    31.43000000    17.29000000
   O     63.87000000    30.50000000    16.51000000
   C     64.86000000    33.06000000    15.69000000
   C     65.12000000    34.54000000    15.40000000
   C     65.76000000    34.74000000    14.03000000
   O     65.04000000    34.78000000    13.01000000
   O     66.98000000    34.91000000    13.85000000
   H     64.13000000    34.44000000    18.31000000
   H     62.99000000    33.29000000    17.01000000
   H     64.21000000    32.72000000    14.89000000
   H     65.75000000    32.44000000    15.74000000
   H     65.70000000    35.04000000    16.17000000
   H     64.20000000    35.11000000    15.47000000
   N     63.40000000    31.09000000    18.54000000
   C     63.12000000    29.77000000    19.07000000
   H     62.13300000    29.44800000    18.73800000
   H     63.87100000    29.06700000    18.71000000
   H     63.14400000    29.80300000    20.15900000
   H     63.17000000    31.85000000    19.16000000
  Ca     68.35000000    33.86000000    11.97000000
   O     69.68000000    34.39000000     9.84000000
   H     69.14000000    33.80000000     9.31000000
   H     69.89000000    35.11000000     9.25000000

Ca 1.70



