%chk=Ng-293_loop3_32.0.chk
%nprocshared=48
%mem=10GB
%nosave
#b3lyp/svp scf=(tight,noincore) Test 
#IOP(5/87=12) Density=Current Pop=(MK,readradii) iop(6/33=2) iop(6/42=6)

Ng-293_loop3_32.0 

   0   1
   C     37.43000000    97.23700000    84.39700000
   C     36.55000000    97.34700000    83.15700000
   O     36.47000000    96.47700000    82.29700000
   H     38.31900000    97.85400000    84.26700000
   H     36.87400000    97.58000000    85.26900000
   H     37.72800000    96.19800000    84.54100000
   N     35.76000000    98.41700000    83.05700000
   C     34.84000000    98.69700000    81.96700000
   C     33.97000000    97.54700000    81.48700000
   O     33.41000000    96.74700000    82.23700000
   C     33.89000000    99.78700000    82.44700000
   C     33.29000000   100.62700000    81.32700000
   O     33.41000000   100.33700000    80.11700000
   O     32.72000000   101.66700000    81.73700000
   H     35.77000000    99.05700000    83.83700000
   H     35.43000000    98.99700000    81.10700000
   H     34.44000000   100.48700000    83.06700000
   H     33.06000000    99.37700000    83.02700000
   N     33.68000000    97.60700000    80.18700000
   C     32.80000000    96.71700000    79.44700000
   C     31.41000000    96.43700000    79.98700000
   O     30.85000000    95.35700000    79.81700000
   C     33.54000000    95.41700000    79.11700000
   C     34.84000000    95.55700000    78.32700000
   C     35.81000000    94.40700000    78.57700000
   C     36.33000000    94.43700000    80.00700000
   N     37.13000000    93.23700000    80.26700000
   H     33.87000000    98.50700000    79.76700000
   H     32.57000000    97.28700000    78.55700000
   H     32.96000000    94.63700000    78.62700000
   H     33.81000000    95.03700000    80.09700000
   H     35.30000000    96.49700000    78.63700000
   H     34.59000000    95.54700000    77.26700000
   H     36.68000000    94.40700000    77.90700000
   H     35.26000000    93.48700000    78.38700000
   H     35.45000000    94.49700000    80.65700000
   H     36.84000000    95.38700000    80.16700000
   H     36.53000000    92.42700000    80.16700000
   H     37.81000000    93.15700000    79.52700000
   H     37.62000000    93.24700000    81.14700000
   N     30.79000000    97.41700000    80.65700000
   C     29.49000000    97.37700000    81.30700000
   C     28.87000000    98.75700000    81.47700000
   O     29.57000000    99.74700000    81.70700000
   C     29.61000000    96.64700000    82.63700000
   C     28.41000000    96.88700000    83.54700000
   O     28.52000000    97.49700000    84.62700000
   O     27.28000000    96.46700000    83.20700000
   H     31.21000000    98.32700000    80.57700000
   H     28.81000000    96.78700000    80.70700000
   H     30.53000000    97.02700000    83.08700000
   H     29.78000000    95.58700000    82.45700000
   N     27.56000000    98.85700000    81.24700000
   C     26.79000000   100.08700000    81.29700000
   C     26.33000000   100.43700000    82.70700000
   O     26.01000000    99.56700000    83.51700000
   H     27.04000000    98.03700000    80.96700000
   H     25.85000000   100.04700000    80.74700000
   H     27.41000000   100.84700000    80.82700000
   N     26.52000000   101.68700000    83.12700000
   C     26.27000000   102.28700000    84.42700000
   C     25.70000000   103.68700000    84.31700000
   O     24.99000000   104.14700000    85.20700000
   C     27.61000000   102.21700000    85.15700000
   C     28.06000000   100.79700000    85.43700000
   N     29.10000000   100.23700000    84.80700000
   O     27.36000000   100.08700000    86.15700000
   H     26.85000000   102.28700000    82.38700000
   H     25.60000000   101.71700000    85.06700000
   H     27.54000000   102.84700000    86.04700000
   H     28.34000000   102.68700000    84.48700000
   H     29.78000000   100.83700000    84.36700000
   H     29.01000000    99.24700000    84.61700000
   N     26.00000000   104.38700000    83.20700000
   C     25.82000000   105.81700000    83.11700000
   C     26.43000000   106.55700000    84.30700000
   O     27.45000000   106.14700000    84.84700000
   H     26.43000000   103.93700000    82.40700000
   H     24.76000000   106.06700000    83.19700000
   H     26.32000000   106.05700000    82.17700000
   N     25.75000000   107.59700000    84.77700000
   C     25.98000000   108.27700000    86.03700000
   C     26.20000000   107.39700000    87.26700000
   O     26.56000000   108.02700000    88.26700000
   C     27.07000000   109.32700000    85.84700000
   C     26.77000000   110.46700000    84.90700000
   C     27.15000000   110.34700000    83.56700000
   C     26.37000000   111.69700000    85.43700000
   C     26.73000000   111.37700000    82.70700000
   C     25.90000000   112.68700000    84.57700000
   C     26.05000000   112.50700000    83.18700000
   O     25.73000000   113.55700000    82.37700000
   H     24.85000000   107.75700000    84.34700000
   H     25.09000000   108.86700000    86.24700000
   H     27.95000000   108.76700000    85.50700000
   H     27.34000000   109.79700000    86.78700000
   H     27.72000000   109.50700000    83.20700000
   H     26.18000000   111.68700000    86.50700000
   H     27.00000000   111.33700000    81.65700000
   H     25.42000000   113.59700000    84.92700000
   H     25.42000000   114.40700000    82.68700000
   N     25.93000000   106.09700000    87.24700000
   C     25.70000000   105.26700000    88.40700000
   C     24.43000000   105.52700000    89.20700000
   O     23.64000000   104.61700000    89.41700000
   C     26.90000000   105.20700000    89.34700000
   C     28.20000000   104.88700000    88.60700000
   C     26.63000000   104.20700000    90.46700000
   C     29.36000000   104.89700000    89.58700000
   H     25.56000000   105.69700000    86.38700000
   H     25.60000000   104.25700000    88.01700000
   H     26.97000000   106.19700000    89.80700000
   H     28.37000000   105.61700000    87.80700000
   H     28.02000000   103.92700000    88.12700000
   H     27.38000000   104.27700000    91.25700000
   H     25.68000000   104.31700000    90.99700000
   H     26.83000000   103.26700000    89.95700000
   H     29.59000000   105.92700000    89.84700000
   H     29.24000000   104.15700000    90.38700000
   H     30.17000000   104.60700000    88.91700000
   N     24.07000000   106.75700000    89.58700000
   C     22.91000000   107.19700000    90.34700000
   C     22.48000000   106.30700000    91.49700000
   O     21.29000000   106.03700000    91.61700000
   C     23.14000000   108.59700000    90.90700000
   O     23.43000000   109.56700000    89.92700000
   H     24.66000000   107.51700000    89.29700000
   H     22.12000000   107.27700000    89.59700000
   H     23.92000000   108.55700000    91.65700000
   H     22.18000000   108.89700000    91.32700000
   H     23.66000000   110.31700000    90.46700000
   N     23.46000000   105.66700000    92.15700000
   C     23.17000000   104.70700000    93.19700000
   C     22.40000000   103.49700000    92.69700000
   O     21.65000000   102.99700000    93.52700000
   C     22.59000000   105.42700000    94.40700000
   H     24.42000000   105.87700000    91.92700000
   H     24.18000000   104.35700000    93.40700000
   H     23.21000000   106.26700000    94.73700000
   H     21.65000000   105.91700000    94.16700000
   H     22.65000000   104.77700000    95.28700000
   N     22.56000000   103.08700000    91.43700000
   C     22.10000000   101.79700000    90.97700000
   C     22.97000000   100.63700000    91.42700000
   O     24.18000000   100.76700000    91.61700000
   C     21.93000000   101.90700000    89.45700000
   H     22.98000000   103.76700000    90.82700000
   H     21.13000000   101.51700000    91.39700000
   H     22.91000000   102.24700000    89.12700000
   H     21.63000000   100.89700000    89.16700000
   H     21.12000000   102.55700000    89.13700000
   N     22.34000000    99.46700000    91.54700000
   C     23.14000000    98.25700000    91.55700000
   C     24.14000000    98.07700000    92.68700000
   O     25.21000000    97.51700000    92.47700000
   C     23.70000000    97.85700000    90.19700000
   C     22.66000000    97.67700000    89.09700000
   C     23.31000000    97.63700000    87.71700000
   O     24.54000000    97.42700000    87.68700000
   O     22.68000000    97.94700000    86.68700000
   H     21.34000000    99.38700000    91.66700000
   H     22.43000000    97.46700000    91.79700000
   H     24.33000000    96.96700000    90.27700000
   H     24.36000000    98.64700000    89.84700000
   H     21.94000000    98.48700000    89.16700000
   H     22.17000000    96.73700000    89.35700000
   N     23.81000000    98.48700000    93.91700000
   C     24.76000000    98.54700000    95.01700000
   H     25.62900000    99.13200000    94.71500000
   H     24.28800000    99.01700000    95.88000000
   H     25.07600000    97.53800000    95.28000000
   H     22.90000000    98.89700000    94.07700000
  Ca     26.05000000    97.70000000    85.53000000
   O     26.04000000    95.05000000    85.92000000
   H     25.45000000    94.57000000    86.50000000
   H     26.48000000    94.37000000    85.41000000

Ca 1.70



