%chk=Ng-293_loop3_58.0.chk
%nprocshared=48
%mem=10GB
%nosave
#b3lyp/svp scf=(tight,noincore) Test 
#IOP(5/87=12) Density=Current Pop=(MK,readradii) iop(6/33=2) iop(6/42=6)

Ng-293_loop3_58.0 

   0   1
   C     66.16000000    25.34000000    10.11000000
   C     66.67000000    26.12000000     8.91000000
   O     65.95000000    26.31000000     7.92000000
   H     65.14400000    24.99600000     9.91400000
   H     66.80700000    24.48000000    10.28700000
   H     66.16200000    25.98400000    10.99000000
   N     67.92000000    26.57000000     8.97000000
   C     68.48000000    27.34000000     7.88000000
   C     67.75000000    28.68000000     7.83000000
   O     67.38000000    29.16000000     8.91000000
   C     69.97000000    27.65000000     7.87000000
   C     70.58000000    27.89000000     9.24000000
   O     70.50000000    26.99000000    10.10000000
   O     71.11000000    29.01000000     9.46000000
   H     68.42000000    26.55000000     9.85000000
   H     68.23000000    26.86000000     6.94000000
   H     70.09000000    28.53000000     7.24000000
   H     70.45000000    26.82000000     7.35000000
   N     67.54000000    29.29000000     6.66000000
   C     66.71000000    30.44000000     6.39000000
   C     67.12000000    31.79000000     6.94000000
   O     67.38000000    32.74000000     6.20000000
   C     65.24000000    30.11000000     6.64000000
   C     64.22000000    31.08000000     6.05000000
   C     62.84000000    30.50000000     6.34000000
   C     61.76000000    31.20000000     5.51000000
   N     60.37000000    30.84000000     5.79000000
   H     67.94000000    28.85000000     5.84000000
   H     66.79000000    30.54000000     5.30000000
   H     65.14000000    30.13000000     7.73000000
   H     65.10000000    29.11000000     6.23000000
   H     64.43000000    31.14000000     4.98000000
   H     64.45000000    32.06000000     6.46000000
   H     62.60000000    30.65000000     7.39000000
   H     62.76000000    29.43000000     6.17000000
   H     62.00000000    31.18000000     4.44000000
   H     61.78000000    32.27000000     5.70000000
   H     60.18000000    30.68000000     6.77000000
   H     59.75000000    31.49000000     5.32000000
   H     60.17000000    29.99000000     5.29000000
   N     67.14000000    31.87000000     8.28000000
   C     67.39000000    33.12000000     8.97000000
   C     68.39000000    32.84000000    10.08000000
   O     67.94000000    32.52000000    11.18000000
   C     66.07000000    33.64000000     9.52000000
   C     66.14000000    34.96000000    10.28000000
   O     67.12000000    35.70000000    10.05000000
   O     65.37000000    35.15000000    11.24000000
   H     66.99000000    31.05000000     8.84000000
   H     67.79000000    33.92000000     8.35000000
   H     65.66000000    32.87000000    10.18000000
   H     65.32000000    33.80000000     8.74000000
   N     69.66000000    33.19000000     9.89000000
   C     70.74000000    32.96000000    10.83000000
   C     70.43000000    33.43000000    12.25000000
   O     69.98000000    34.54000000    12.53000000
   H     69.80000000    33.64000000     9.00000000
   H     71.62000000    33.50000000    10.48000000
   H     70.95000000    31.90000000    10.77000000
   N     70.57000000    32.53000000    13.23000000
   C     70.26000000    32.75000000    14.62000000
   C     71.38000000    33.45000000    15.37000000
   O     71.10000000    34.24000000    16.28000000
   C     69.80000000    31.47000000    15.33000000
   C     68.62000000    30.74000000    14.71000000
   N     68.93000000    29.52000000    14.27000000
   O     67.54000000    31.26000000    14.47000000
   H     70.79000000    31.56000000    13.02000000
   H     69.43000000    33.46000000    14.69000000
   H     69.53000000    31.77000000    16.34000000
   H     70.62000000    30.81000000    15.62000000
   H     69.90000000    29.23000000    14.30000000
   H     68.25000000    28.98000000    13.76000000
   N     72.65000000    33.31000000    14.98000000
   C     73.68000000    33.94000000    15.77000000
   C     73.53000000    33.75000000    17.27000000
   O     73.26000000    32.64000000    17.74000000
   H     72.86000000    32.72000000    14.19000000
   H     73.69000000    35.02000000    15.63000000
   H     74.67000000    33.58000000    15.48000000
   N     73.82000000    34.79000000    18.06000000
   C     73.56000000    34.69000000    19.49000000
   C     72.17000000    34.36000000    20.02000000
   O     72.11000000    34.19000000    21.23000000
   C     74.72000000    34.02000000    20.20000000
   C     76.11000000    34.19000000    19.63000000
   C     76.74000000    33.21000000    18.85000000
   C     76.75000000    35.42000000    19.83000000
   C     77.97000000    33.49000000    18.23000000
   C     77.96000000    35.75000000    19.20000000
   C     78.58000000    34.74000000    18.45000000
   O     79.80000000    35.04000000    17.93000000
   H     74.28000000    35.62000000    17.72000000
   H     73.59000000    35.74000000    19.79000000
   H     74.47000000    32.96000000    20.14000000
   H     74.72000000    34.37000000    21.24000000
   H     76.30000000    32.23000000    18.82000000
   H     76.26000000    36.14000000    20.46000000
   H     78.39000000    32.75000000    17.57000000
   H     78.49000000    36.68000000    19.38000000
   H     80.02000000    35.93000000    18.22000000
   N     71.17000000    34.28000000    19.13000000
   C     69.75000000    34.14000000    19.36000000
   C     69.12000000    35.34000000    20.05000000
   O     68.13000000    35.95000000    19.64000000
   C     69.38000000    32.82000000    20.03000000
   C     69.74000000    31.62000000    19.15000000
   C     67.90000000    32.71000000    20.40000000
   C     70.08000000    30.40000000    20.00000000
   H     71.40000000    34.14000000    18.16000000
   H     69.23000000    34.11000000    18.39000000
   H     69.89000000    32.75000000    20.98000000
   H     70.61000000    31.89000000    18.55000000
   H     68.94000000    31.36000000    18.46000000
   H     67.65000000    31.69000000    20.70000000
   H     67.78000000    33.36000000    21.27000000
   H     67.24000000    33.00000000    19.59000000
   H     71.05000000    30.63000000    20.46000000
   H     69.31000000    30.23000000    20.75000000
   H     70.23000000    29.49000000    19.42000000
   N     69.75000000    35.85000000    21.11000000
   C     69.36000000    37.06000000    21.81000000
   C     68.12000000    36.82000000    22.66000000
   O     67.60000000    37.87000000    23.02000000
   C     70.43000000    37.60000000    22.75000000
   O     71.68000000    37.46000000    22.11000000
   H     70.58000000    35.36000000    21.42000000
   H     69.09000000    37.86000000    21.12000000
   H     70.45000000    37.06000000    23.70000000
   H     70.24000000    38.64000000    22.99000000
   H     71.74000000    38.03000000    21.35000000
   N     67.63000000    35.60000000    22.92000000
   C     66.31000000    35.30000000    23.44000000
   C     65.14000000    35.96000000    22.73000000
   O     64.08000000    36.23000000    23.30000000
   C     66.27000000    35.26000000    24.96000000
   H     68.26000000    34.83000000    22.76000000
   H     66.18000000    34.30000000    23.03000000
   H     66.15000000    36.25000000    25.40000000
   H     65.40000000    34.67000000    25.25000000
   H     67.12000000    34.72000000    25.38000000
   N     65.33000000    36.34000000    21.47000000
   C     64.31000000    36.81000000    20.54000000
   C     63.97000000    35.64000000    19.62000000
   O     64.75000000    34.69000000    19.53000000
   C     64.84000000    38.00000000    19.75000000
   H     66.14000000    35.94000000    21.02000000
   H     63.43000000    37.05000000    21.12000000
   H     64.11000000    38.24000000    18.98000000
   H     65.01000000    38.83000000    20.43000000
   H     65.82000000    37.74000000    19.35000000
   N     62.78000000    35.61000000    19.02000000
   C     62.30000000    34.64000000    18.06000000
   C     62.30000000    33.26000000    18.69000000
   O     62.33000000    32.27000000    17.96000000
   C     63.07000000    34.74000000    16.74000000
   C     62.43000000    35.82000000    15.87000000
   C     63.17000000    36.04000000    14.56000000
   O     62.90000000    35.30000000    13.59000000
   O     64.04000000    36.94000000    14.46000000
   H     62.12000000    36.33000000    19.26000000
   H     61.25000000    34.87000000    17.85000000
   H     63.04000000    33.84000000    16.12000000
   H     64.11000000    34.95000000    16.96000000
   H     62.31000000    36.78000000    16.37000000
   H     61.44000000    35.48000000    15.59000000
   N     62.08000000    33.15000000    20.00000000
   C     61.98000000    31.86000000    20.64000000
   H     60.95500000    31.49600000    20.56500000
   H     62.65100000    31.15600000    20.14800000
   H     62.25600000    31.95200000    21.69000000
   H     61.90000000    34.00000000    20.52000000
  Ca     63.65000000    37.03000000    11.77000000
   O     65.33000000    38.06000000     9.93000000
   H     65.74000000    37.70000000     9.15000000
   H     65.58000000    38.98000000     9.94000000

Ca 1.70



