%chk=Ng-295_loop3_23.0.chk
%nprocshared=48
%mem=10GB
%nosave
#b3lyp/svp scf=(tight,noincore) Test 
#IOP(5/87=12) Density=Current Pop=(MK,readradii) iop(6/33=2) iop(6/42=6)

Ng-295_loop3_23.0 

   0   1
   C     98.44100000    78.09100000    32.01000000
   C     97.95100000    76.96100000    31.11000000
   O     97.28100000    76.07100000    31.63000000
   H     99.34400000    78.52800000    31.58400000
   H     97.66900000    78.85700000    32.08600000
   H     98.66100000    77.69700000    33.00200000
   N     98.01100000    76.93100000    29.78000000
   C     97.50100000    75.89100000    28.91000000
   C     98.63100000    75.15100000    28.20000000
   O     99.62100000    75.59100000    27.63000000
   C     96.67100000    76.59100000    27.84000000
   C     95.72100000    75.70100000    27.05000000
   O     95.86100000    74.46100000    26.97000000
   O     94.73100000    76.28100000    26.56000000
   H     98.61100000    77.60100000    29.33000000
   H     96.84100000    75.22100000    29.47000000
   H     97.34100000    77.00100000    27.08000000
   H     96.07100000    77.36100000    28.32000000
   N     98.45100000    73.84100000    28.32000000
   C     99.42100000    72.91100000    27.76000000
   C     99.05100000    72.40100000    26.38000000
   O     99.84100000    71.65100000    25.82000000
   C     99.71100000    71.90100000    28.87000000
   C    101.07100000    71.23100000    28.66000000
   C    101.15100000    69.82100000    29.26000000
   C    100.48100000    68.78100000    28.38000000
   N    100.48100000    67.41100000    28.92000000
   H     97.64100000    73.50100000    28.83000000
   H    100.32100000    73.50100000    27.61000000
   H     98.89100000    71.17100000    28.85000000
   H     99.64100000    72.51100000    29.76000000
   H    101.81100000    71.89100000    29.11000000
   H    101.29100000    71.10100000    27.60000000
   H    100.67100000    69.87100000    30.23000000
   H    102.22100000    69.59100000    29.35000000
   H    100.84100000    68.83100000    27.35000000
   H     99.45100000    69.14100000    28.33000000
   H     99.89100000    67.35100000    29.74000000
   H    100.17100000    66.67100000    28.32000000
   H    101.37100000    67.15100000    29.33000000
   N     97.92100000    72.76100000    25.77000000
   C     97.48100000    72.42100000    24.43000000
   C     97.20100000    73.55100000    23.46000000
   O     97.33100000    73.35100000    22.25000000
   C     96.32100000    71.44100000    24.60000000
   C     95.08100000    71.95100000    25.32000000
   O     94.58100000    73.03100000    24.94000000
   O     94.56100000    71.36100000    26.29000000
   H     97.20100000    73.03100000    26.42000000
   H     98.27100000    71.81100000    23.99000000
   H     96.74100000    70.58100000    25.13000000
   H     96.06100000    71.05100000    23.61000000
   N     97.20100000    74.76100000    24.02000000
   C     96.91100000    75.98100000    23.29000000
   C     95.50100000    75.99100000    22.72000000
   O     95.15100000    76.93100000    22.01000000
   H     97.43100000    74.89100000    25.00000000
   H     97.65100000    76.05100000    22.49000000
   H     97.00100000    76.85100000    23.94000000
   N     94.59100000    75.07100000    23.03000000
   C     93.18100000    75.12100000    22.70000000
   C     92.30100000    75.74100000    23.78000000
   O     92.24100000    75.15100000    24.85000000
   C     92.72100000    73.70100000    22.38000000
   C     91.31100000    73.58100000    21.83000000
   N     90.73100000    72.38100000    21.89000000
   O     90.75100000    74.55100000    21.32000000
   H     94.80100000    74.26100000    23.60000000
   H     92.92100000    75.70100000    21.81000000
   H     92.78100000    73.12100000    23.30000000
   H     93.42100000    73.28100000    21.66000000
   H     91.17100000    71.53100000    22.21000000
   H     89.94100000    72.32100000    21.26000000
   N     91.53100000    76.82100000    23.61000000
   C     90.73100000    77.48100000    24.62000000
   C     89.33100000    76.90100000    24.82000000
   O     88.46100000    77.59100000    25.35000000
   H     91.72100000    77.41100000    22.82000000
   H     90.75100000    78.55100000    24.41000000
   H     91.39100000    77.50100000    25.49000000
   N     89.01100000    75.66100000    24.47000000
   C     87.74100000    74.95100000    24.48000000
   C     87.64100000    74.13100000    25.76000000
   O     88.65100000    73.71100000    26.32000000
   C     87.71100000    73.99100000    23.30000000
   C     86.51100000    73.09100000    23.20000000
   C     86.67100000    71.79100000    23.70000000
   C     85.38100000    73.36100000    22.41000000
   C     85.61100000    70.88100000    23.54000000
   C     84.32100000    72.48100000    22.20000000
   C     84.49100000    71.18100000    22.73000000
   O     83.52100000    70.26100000    22.47000000
   H     89.81100000    75.12100000    24.17000000
   H     87.02100000    75.76100000    24.38000000
   H     88.62100000    73.40100000    23.26000000
   H     87.74100000    74.56100000    22.36000000
   H     87.54100000    71.53100000    24.28000000
   H     85.17100000    74.37100000    22.10000000
   H     85.81100000    69.84100000    23.73000000
   H     83.45100000    72.78100000    21.64000000
   H     82.75100000    70.78100000    22.24000000
   N     86.40100000    74.14100000    26.27000000
   C     85.98100000    73.69100000    27.58000000
   C     86.02100000    72.18100000    27.76000000
   O     87.01100000    71.47100000    27.56000000
   C     86.73100000    74.38100000    28.72000000
   C     86.22100000    73.92100000    30.08000000
   C     86.71100000    75.90100000    28.54000000
   C     84.76100000    74.26100000    30.37000000
   H     85.65100000    74.61100000    25.78000000
   H     84.93100000    73.96100000    27.68000000
   H     87.76100000    74.03100000    28.69000000
   H     86.82100000    74.49100000    30.79000000
   H     86.40100000    72.88100000    30.32000000
   H     87.43100000    76.26100000    27.81000000
   H     85.76100000    76.30100000    28.18000000
   H     87.02100000    76.44100000    29.44000000
   H     84.45100000    74.04100000    31.39000000
   H     84.54100000    75.32100000    30.21000000
   H     84.08100000    73.71100000    29.72000000
   N     84.86100000    71.63100000    28.10000000
   C     84.61100000    70.22100000    28.30000000
   C     83.23100000    69.71100000    27.89000000
   O     83.02100000    68.52100000    27.68000000
   C     84.87100000    69.76100000    29.73000000
   O     84.00100000    70.39100000    30.65000000
   H     84.06100000    72.24100000    28.11000000
   H     85.25100000    69.69100000    27.60000000
   H     85.90100000    70.00100000    30.01000000
   H     84.80100000    68.67100000    29.75000000
   H     84.58100000    70.80100000    31.29000000
   N     82.22100000    70.55100000    27.67000000
   C     80.89100000    70.21100000    27.20000000
   C     79.96100000    69.35100000    28.04000000
   O     79.03100000    68.75100000    27.49000000
   C     80.92100000    69.79100000    25.73000000
   H     82.32100000    71.54100000    27.84000000
   H     80.39100000    71.17100000    27.26000000
   H     81.04100000    68.71100000    25.72000000
   H     80.01100000    70.08100000    25.21000000
   H     81.83100000    70.23100000    25.32000000
   N     80.07100000    69.22100000    29.36000000
   C     80.77100000    69.93100000    30.41000000
   C     79.79100000    70.60100000    31.37000000
   O     78.63100000    70.22100000    31.44000000
   C     81.49100000    68.79100000    31.11000000
   H     79.43100000    68.53100000    29.74000000
   H     81.50100000    70.64100000    30.01000000
   H     80.68100000    68.18100000    31.50000000
   H     82.11100000    68.22100000    30.42000000
   H     82.08100000    69.27100000    31.89000000
   N     80.07100000    71.62100000    32.18000000
   C     81.31100000    72.37100000    32.29000000
   C     81.10100000    73.88100000    32.34000000
   O     82.02100000    74.62100000    31.99000000
   C     82.07100000    71.80100000    33.48000000
   C     81.37100000    71.99100000    34.83000000
   C     82.31100000    71.59100000    35.96000000
   O     82.08100000    70.50100000    36.53000000
   O     83.27100000    72.36100000    36.14000000
   H     79.39100000    71.77100000    32.91000000
   H     81.99100000    72.25100000    31.44000000
   H     83.04100000    72.29100000    33.54000000
   H     82.27100000    70.74100000    33.34000000
   H     80.40100000    71.51100000    34.82000000
   H     81.26100000    73.06100000    35.02000000
   N     79.96100000    74.41100000    32.78000000
   C     79.68100000    75.82100000    32.59000000
   H     78.75600000    76.08000000    33.10600000
   H     80.50100000    76.41300000    32.99600000
   H     79.57300000    76.03000000    31.52600000
   H     79.24100000    73.71100000    32.89000000
  Ca     93.24000000    74.07000000    26.99000000
   O     92.42000000    72.56000000    28.94000000
   H     92.84000000    72.72000000    29.78000000
   H     91.92000000    71.76000000    29.07000000

Ca 1.70



