%chk=Ng-293_loop3_63.0.chk
%nprocshared=48
%mem=10GB
%nosave
#b3lyp/svp scf=(tight,noincore) Test 
#IOP(5/87=12) Density=Current Pop=(MK,readradii) iop(6/33=2) iop(6/42=6)

Ng-293_loop3_63.0 

   0   1
   C     41.07000000    75.90000000    67.43000000
   C     41.91000000    75.87000000    66.16000000
   O     42.98000000    76.44000000    66.02000000
   H     40.08500000    75.48100000    67.22400000
   H     41.56000000    75.31000000    68.20400000
   H     40.96200000    76.93000000    67.77100000
   N     41.32000000    75.27000000    65.12000000
   C     41.61000000    75.40000000    63.70000000
   C     41.28000000    74.09000000    63.00000000
   O     40.39000000    73.39000000    63.48000000
   C     40.85000000    76.55000000    63.03000000
   C     41.41000000    77.04000000    61.70000000
   O     42.41000000    76.47000000    61.22000000
   O     40.78000000    77.94000000    61.12000000
   H     40.48000000    74.73000000    65.23000000
   H     42.66000000    75.70000000    63.63000000
   H     41.01000000    77.33000000    63.77000000
   H     39.80000000    76.28000000    63.03000000
   N     41.97000000    73.81000000    61.89000000
   C     41.72000000    72.67000000    61.03000000
   C     40.33000000    72.58000000    60.42000000
   O     39.43000000    73.35000000    60.75000000
   C     42.11000000    71.40000000    61.78000000
   C     43.48000000    71.50000000    62.44000000
   C     44.65000000    71.91000000    61.54000000
   C     46.01000000    71.59000000    62.15000000
   N     47.10000000    72.04000000    61.27000000
   H     42.56000000    74.55000000    61.55000000
   H     42.35000000    72.69000000    60.14000000
   H     42.17000000    70.59000000    61.06000000
   H     41.38000000    71.20000000    62.56000000
   H     43.71000000    70.49000000    62.79000000
   H     43.48000000    72.10000000    63.35000000
   H     44.68000000    73.00000000    61.46000000
   H     44.69000000    71.46000000    60.55000000
   H     45.99000000    70.52000000    62.34000000
   H     46.11000000    72.05000000    63.14000000
   H     47.96000000    71.67000000    61.66000000
   H     46.79000000    71.71000000    60.37000000
   H     47.31000000    73.02000000    61.23000000
   N     40.18000000    71.62000000    59.51000000
   C     39.04000000    71.60000000    58.61000000
   C     37.76000000    71.02000000    59.19000000
   O     37.82000000    70.05000000    59.95000000
   C     39.45000000    70.91000000    57.32000000
   C     40.03000000    69.51000000    57.39000000
   O     39.54000000    68.61000000    56.66000000
   O     41.11000000    69.25000000    57.97000000
   H     40.93000000    70.97000000    59.29000000
   H     38.76000000    72.62000000    58.38000000
   H     40.15000000    71.53000000    56.75000000
   H     38.52000000    70.85000000    56.75000000
   N     36.61000000    71.61000000    58.86000000
   C     35.32000000    70.99000000    59.09000000
   C     34.98000000    69.82000000    58.18000000
   O     35.16000000    69.85000000    56.96000000
   H     36.64000000    72.48000000    58.35000000
   H     34.56000000    71.77000000    59.10000000
   H     35.16000000    70.63000000    60.11000000
   N     34.42000000    68.72000000    58.69000000
   C     33.98000000    67.55000000    57.97000000
   C     32.70000000    66.98000000    58.57000000
   O     32.55000000    65.77000000    58.75000000
   C     35.11000000    66.53000000    57.92000000
   C     36.37000000    67.07000000    57.27000000
   N     37.39000000    67.55000000    57.99000000
   O     36.52000000    67.15000000    56.05000000
   H     34.47000000    68.61000000    59.70000000
   H     33.74000000    67.81000000    56.94000000
   H     34.72000000    65.63000000    57.45000000
   H     35.31000000    66.32000000    58.98000000
   H     37.51000000    67.46000000    58.99000000
   H     38.03000000    68.08000000    57.41000000
   N     31.70000000    67.80000000    58.87000000
   C     30.33000000    67.46000000    59.19000000
   C     30.10000000    66.74000000    60.51000000
   O     30.39000000    67.37000000    61.53000000
   H     31.77000000    68.77000000    58.60000000
   H     30.08000000    66.72000000    58.43000000
   H     29.63000000    68.28000000    59.02000000
   N     29.48000000    65.55000000    60.56000000
   C     29.33000000    64.66000000    61.69000000
   C     30.61000000    64.24000000    62.39000000
   O     30.62000000    63.44000000    63.32000000
   C     28.21000000    65.16000000    62.61000000
   C     27.42000000    64.09000000    63.33000000
   C     27.29000000    64.06000000    64.72000000
   C     26.85000000    63.05000000    62.59000000
   C     26.53000000    63.10000000    65.41000000
   C     26.19000000    62.00000000    63.24000000
   C     25.98000000    62.06000000    64.63000000
   O     25.31000000    61.02000000    65.20000000
   H     29.20000000    65.13000000    59.69000000
   H     28.99000000    63.69000000    61.34000000
   H     27.58000000    65.70000000    61.91000000
   H     28.57000000    65.91000000    63.32000000
   H     27.78000000    64.85000000    65.27000000
   H     26.90000000    63.06000000    61.51000000
   H     26.41000000    62.96000000    66.47000000
   H     25.74000000    61.23000000    62.63000000
   H     25.06000000    60.34000000    64.56000000
   N     31.73000000    64.70000000    61.83000000
   C     33.14000000    64.56000000    62.18000000
   C     33.74000000    63.17000000    61.99000000
   O     34.78000000    63.04000000    61.35000000
   C     33.48000000    65.03000000    63.59000000
   C     32.87000000    66.41000000    63.84000000
   C     34.99000000    65.16000000    63.74000000
   C     33.51000000    67.54000000    63.04000000
   H     31.61000000    65.40000000    61.11000000
   H     33.68000000    65.23000000    61.51000000
   H     33.16000000    64.32000000    64.35000000
   H     32.94000000    66.65000000    64.90000000
   H     31.80000000    66.38000000    63.64000000
   H     35.39000000    64.17000000    63.98000000
   H     35.47000000    65.56000000    62.85000000
   H     35.21000000    65.75000000    64.62000000
   H     33.55000000    67.42000000    61.95000000
   H     33.10000000    68.52000000    63.30000000
   H     34.55000000    67.62000000    63.33000000
   N     33.04000000    62.12000000    62.42000000
   C     33.29000000    60.72000000    62.15000000
   C     34.50000000    60.16000000    62.88000000
   O     35.30000000    59.46000000    62.27000000
   C     32.01000000    59.93000000    62.36000000
   O     31.47000000    59.89000000    63.67000000
   H     32.21000000    62.33000000    62.95000000
   H     33.50000000    60.62000000    61.08000000
   H     32.09000000    58.85000000    62.26000000
   H     31.24000000    60.26000000    61.66000000
   H     30.57000000    59.57000000    63.73000000
   N     34.69000000    60.59000000    64.13000000
   C     35.82000000    60.21000000    64.96000000
   C     37.19000000    60.53000000    64.36000000
   O     38.20000000    59.90000000    64.66000000
   C     35.73000000    58.72000000    65.28000000
   H     33.95000000    61.18000000    64.48000000
   H     35.73000000    60.76000000    65.90000000
   H     36.43000000    58.43000000    66.06000000
   H     34.71000000    58.44000000    65.52000000
   H     35.93000000    58.09000000    64.41000000
   N     37.26000000    61.51000000    63.46000000
   C     38.42000000    61.74000000    62.62000000
   C     39.45000000    62.77000000    63.08000000
   O     39.14000000    63.80000000    63.67000000
   C     37.92000000    62.22000000    61.26000000
   H     36.39000000    61.97000000    63.20000000
   H     38.98000000    60.82000000    62.46000000
   H     37.43000000    63.20000000    61.31000000
   H     38.67000000    62.26000000    60.47000000
   H     37.19000000    61.50000000    60.89000000
   N     40.70000000    62.58000000    62.66000000
   C     41.75000000    63.57000000    62.78000000
   C     41.88000000    64.01000000    64.24000000
   O     42.47000000    65.06000000    64.45000000
   C     41.62000000    64.65000000    61.71000000
   C     41.36000000    64.05000000    60.33000000
   C     41.39000000    65.04000000    59.18000000
   O     42.31000000    65.03000000    58.33000000
   O     40.51000000    65.91000000    59.02000000
   H     40.93000000    61.79000000    62.08000000
   H     42.71000000    63.11000000    62.54000000
   H     42.53000000    65.24000000    61.68000000
   H     40.78000000    65.31000000    61.94000000
   H     40.41000000    63.51000000    60.30000000
   H     42.15000000    63.34000000    60.12000000
   N     41.52000000    63.22000000    65.26000000
   C     41.44000000    63.66000000    66.64000000
   H     40.41400000    63.94600000    66.87100000
   H     41.74800000    62.84800000    67.29900000
   H     42.09700000    64.51700000    66.78700000
   H     41.16000000    62.31000000    65.00000000
  Ca     41.40000000    66.80000000    56.59000000
   O     42.06000000    68.58000000    54.87000000
   H     42.39000000    69.42000000    55.19000000
   H     42.50000000    68.46000000    54.03000000

Ca 1.70



