%chk=Ng-293_loop3_52.0.chk
%nprocshared=48
%mem=10GB
%nosave
#b3lyp/svp scf=(tight,noincore) Test 
#IOP(5/87=12) Density=Current Pop=(MK,readradii) iop(6/33=2) iop(6/42=6)

Ng-293_loop3_52.0 

   0   1
   C     65.06000000    27.16000000    22.56000000
   C     65.99000000    28.06000000    21.75000000
   O     65.55000000    29.13000000    21.33000000
   H     64.10700000    27.06000000    22.04000000
   H     65.51500000    26.17600000    22.67500000
   H     64.89200000    27.60100000    23.54300000
   N     67.28000000    27.78000000    21.60000000
   C     68.33000000    28.43000000    20.84000000
   C     68.21000000    28.40000000    19.32000000
   O     69.25000000    28.26000000    18.67000000
   C     68.58000000    29.86000000    21.33000000
   C     69.97000000    30.37000000    20.99000000
   O     70.11000000    31.07000000    19.96000000
   O     70.95000000    30.21000000    21.75000000
   H     67.65000000    26.94000000    22.02000000
   H     69.21000000    27.83000000    21.06000000
   H     68.43000000    29.93000000    22.41000000
   H     67.84000000    30.56000000    20.95000000
   N     67.05000000    28.20000000    18.69000000
   C     66.78000000    28.23000000    17.27000000
   C     66.35000000    29.59000000    16.73000000
   O     66.49000000    29.84000000    15.54000000
   C     65.81000000    27.11000000    16.90000000
   C     66.39000000    25.72000000    17.16000000
   C     65.45000000    24.57000000    16.82000000
   C     66.24000000    23.27000000    16.68000000
   N     66.88000000    22.99000000    15.39000000
   H     66.28000000    28.22000000    19.34000000
   H     67.63000000    27.94000000    16.66000000
   H     65.34000000    27.20000000    15.92000000
   H     64.88000000    27.13000000    17.47000000
   H     66.57000000    25.63000000    18.23000000
   H     67.27000000    25.64000000    16.53000000
   H     64.91000000    24.64000000    15.88000000
   H     64.67000000    24.43000000    17.57000000
   H     65.47000000    22.54000000    16.92000000
   H     66.89000000    23.14000000    17.55000000
   H     66.17000000    22.96000000    14.66000000
   H     67.64000000    23.60000000    15.11000000
   H     67.26000000    22.07000000    15.28000000
   N     65.83000000    30.47000000    17.59000000
   C     65.50000000    31.81000000    17.16000000
   C     65.93000000    32.71000000    18.32000000
   O     65.74000000    32.34000000    19.48000000
   C     64.02000000    31.93000000    16.81000000
   C     63.78000000    33.28000000    16.15000000
   O     63.17000000    33.27000000    15.05000000
   O     64.16000000    34.33000000    16.72000000
   H     65.78000000    30.23000000    18.57000000
   H     66.05000000    32.14000000    16.28000000
   H     63.39000000    31.93000000    17.69000000
   H     63.68000000    31.08000000    16.22000000
   N     66.69000000    33.78000000    18.07000000
   C     67.36000000    34.65000000    19.02000000
   C     66.51000000    35.86000000    19.36000000
   O     65.56000000    36.12000000    18.63000000
   H     66.90000000    33.98000000    17.10000000
   H     68.29000000    35.05000000    18.61000000
   H     67.54000000    34.26000000    20.02000000
   N     66.86000000    36.66000000    20.37000000
   C     66.16000000    37.86000000    20.77000000
   C     67.08000000    39.04000000    21.06000000
   O     66.69000000    40.19000000    21.21000000
   C     65.39000000    37.54000000    22.05000000
   C     64.34000000    36.44000000    21.93000000
   N     63.32000000    36.62000000    21.09000000
   O     64.33000000    35.45000000    22.66000000
   H     67.67000000    36.37000000    20.92000000
   H     65.43000000    38.17000000    20.03000000
   H     64.99000000    38.50000000    22.36000000
   H     66.13000000    37.18000000    22.77000000
   H     63.25000000    37.49000000    20.57000000
   H     62.70000000    35.83000000    21.02000000
   N     68.40000000    38.86000000    21.16000000
   C     69.34000000    39.93000000    21.38000000
   C     68.95000000    40.87000000    22.52000000
   O     68.99000000    40.42000000    23.66000000
   H     68.79000000    37.93000000    21.19000000
   H     69.37000000    40.47000000    20.43000000
   H     70.34000000    39.52000000    21.56000000
   N     68.60000000    42.12000000    22.23000000
   C     68.17000000    43.06000000    23.25000000
   C     66.85000000    42.81000000    23.95000000
   O     66.51000000    43.41000000    24.96000000
   C     69.36000000    43.41000000    24.14000000
   C     70.64000000    43.84000000    23.44000000
   C     71.72000000    42.96000000    23.51000000
   C     70.78000000    45.15000000    22.95000000
   C     72.93000000    43.31000000    22.90000000
   C     72.02000000    45.58000000    22.46000000
   C     73.08000000    44.65000000    22.48000000
   O     74.27000000    45.14000000    22.04000000
   H     68.49000000    42.40000000    21.27000000
   H     67.95000000    43.96000000    22.67000000
   H     69.57000000    42.54000000    24.75000000
   H     69.07000000    44.21000000    24.82000000
   H     71.66000000    42.07000000    24.11000000
   H     69.90000000    45.77000000    22.92000000
   H     73.80000000    42.68000000    22.93000000
   H     72.13000000    46.59000000    22.08000000
   H     74.06000000    45.98000000    21.63000000
   N     66.04000000    41.90000000    23.40000000
   C     64.65000000    41.59000000    23.69000000
   C     63.64000000    42.72000000    23.68000000
   O     62.64000000    42.62000000    22.97000000
   C     64.62000000    40.86000000    25.03000000
   C     65.77000000    39.91000000    25.36000000
   C     63.21000000    40.32000000    25.26000000
   C     65.55000000    39.07000000    26.62000000
   H     66.39000000    41.31000000    22.65000000
   H     64.36000000    40.87000000    22.93000000
   H     64.75000000    41.60000000    25.82000000
   H     66.68000000    40.49000000    25.47000000
   H     65.84000000    39.20000000    24.54000000
   H     63.21000000    39.88000000    26.26000000
   H     62.46000000    41.09000000    25.14000000
   H     63.08000000    39.47000000    24.59000000
   H     66.50000000    38.62000000    26.91000000
   H     65.12000000    39.61000000    27.46000000
   H     64.84000000    38.26000000    26.44000000
   N     63.83000000    43.85000000    24.37000000
   C     63.18000000    45.13000000    24.16000000
   C     61.69000000    45.17000000    24.45000000
   O     60.96000000    46.11000000    24.14000000
   C     63.79000000    46.21000000    25.04000000
   O     65.03000000    45.74000000    25.52000000
   H     64.69000000    44.00000000    24.88000000
   H     63.15000000    45.53000000    23.14000000
   H     63.08000000    46.42000000    25.84000000
   H     63.89000000    47.16000000    24.51000000
   H     64.90000000    45.75000000    26.47000000
   N     61.10000000    44.07000000    24.92000000
   C     59.70000000    43.78000000    25.17000000
   C     58.95000000    43.80000000    23.84000000
   O     57.86000000    44.36000000    23.74000000
   C     59.11000000    44.66000000    26.27000000
   H     61.73000000    43.28000000    24.99000000
   H     59.64000000    42.74000000    25.49000000
   H     59.07000000    45.71000000    25.96000000
   H     58.06000000    44.49000000    26.50000000
   H     59.59000000    44.50000000    27.24000000
   N     59.52000000    43.17000000    22.81000000
   C     58.97000000    42.95000000    21.49000000
   C     59.24000000    41.53000000    21.03000000
   O     59.75000000    40.64000000    21.70000000
   C     59.48000000    44.06000000    20.57000000
   H     60.44000000    42.83000000    23.06000000
   H     57.89000000    43.03000000    21.58000000
   H     59.23000000    45.07000000    20.89000000
   H     60.57000000    44.00000000    20.66000000
   H     59.21000000    43.93000000    19.53000000
   N     58.75000000    41.28000000    19.81000000
   C     58.64000000    39.99000000    19.16000000
   C     57.80000000    38.99000000    19.94000000
   O     57.50000000    37.93000000    19.39000000
   C     60.03000000    39.47000000    18.82000000
   C     60.17000000    38.18000000    18.01000000
   C     61.58000000    37.83000000    17.55000000
   O     61.88000000    36.62000000    17.49000000
   O     62.50000000    38.66000000    17.37000000
   H     58.41000000    42.06000000    19.27000000
   H     58.06000000    40.16000000    18.26000000
   H     60.59000000    39.21000000    19.72000000
   H     60.57000000    40.18000000    18.18000000
   H     59.56000000    38.33000000    17.12000000
   H     59.82000000    37.38000000    18.67000000
   N     57.28000000    39.34000000    21.12000000
   C     56.74000000    38.43000000    22.11000000
   H     55.73400000    38.13000000    21.81600000
   H     57.37600000    37.54800000    22.17900000
   H     56.70200000    38.92700000    23.07900000
   H     57.76000000    40.14000000    21.51000000
  Ca     64.30000000    37.02000000    16.28000000
   O     65.32000000    35.92000000    14.18000000
   H     66.25000000    36.07000000    13.98000000
   H     65.04000000    35.29000000    13.52000000

Ca 1.70



