%chk=Ng-293_loop3_56.0.chk
%nprocshared=48
%mem=10GB
%nosave
#b3lyp/svp scf=(tight,noincore) Test 
#IOP(5/87=12) Density=Current Pop=(MK,readradii) iop(6/33=2) iop(6/42=6)

Ng-293_loop3_56.0 

   0   1
   C     42.65000000    78.33000000    71.97000000
   C     42.87000000    78.10000000    70.49000000
   O     43.84000000    78.60000000    69.91000000
   H     41.59900000    78.17100000    72.20900000
   H     43.26200000    77.63200000    72.54200000
   H     42.93000000    79.35200000    72.22500000
   N     41.92000000    77.47000000    69.80000000
   C     42.03000000    77.41000000    68.35000000
   C     41.37000000    76.10000000    67.91000000
   O     40.70000000    75.43000000    68.70000000
   C     41.10000000    78.46000000    67.76000000
   C     41.17000000    78.66000000    66.26000000
   O     42.07000000    78.17000000    65.55000000
   O     40.19000000    79.20000000    65.70000000
   H     41.10000000    77.15000000    70.29000000
   H     43.07000000    77.37000000    68.04000000
   H     41.43000000    79.40000000    68.22000000
   H     40.04000000    78.32000000    67.97000000
   N     41.66000000    75.69000000    66.68000000
   C     41.08000000    74.58000000    65.95000000
   C     39.57000000    74.72000000    65.79000000
   O     38.89000000    75.72000000    66.05000000
   C     41.55000000    73.21000000    66.45000000
   C     43.04000000    73.08000000    66.71000000
   C     43.91000000    73.26000000    65.47000000
   C     45.41000000    73.34000000    65.76000000
   N     45.79000000    74.54000000    66.52000000
   H     42.24000000    76.30000000    66.13000000
   H     41.39000000    74.83000000    64.94000000
   H     41.25000000    72.45000000    65.72000000
   H     41.05000000    73.01000000    67.39000000
   H     43.28000000    72.09000000    67.09000000
   H     43.33000000    73.79000000    67.49000000
   H     43.65000000    74.24000000    65.06000000
   H     43.83000000    72.45000000    64.75000000
   H     46.00000000    73.22000000    64.85000000
   H     45.69000000    72.48000000    66.36000000
   H     45.48000000    75.34000000    65.98000000
   H     45.22000000    74.65000000    67.34000000
   H     46.75000000    74.50000000    66.83000000
   N     38.93000000    73.65000000    65.32000000
   C     37.72000000    73.72000000    64.52000000
   C     36.50000000    74.26000000    65.24000000
   O     35.75000000    75.03000000    64.63000000
   C     37.45000000    72.46000000    63.70000000
   C     37.35000000    71.25000000    64.62000000
   O     38.44000000    70.83000000    65.06000000
   O     36.32000000    70.54000000    64.71000000
   H     39.53000000    72.85000000    65.18000000
   H     37.92000000    74.44000000    63.73000000
   H     38.19000000    72.37000000    62.91000000
   H     36.51000000    72.58000000    63.17000000
   N     36.38000000    74.02000000    66.55000000
   C     35.24000000    74.45000000    67.34000000
   C     33.85000000    73.97000000    66.97000000
   O     32.85000000    74.62000000    67.26000000
   H     37.11000000    73.50000000    66.99000000
   H     35.19000000    75.52000000    67.51000000
   H     35.44000000    74.14000000    68.37000000
   N     33.76000000    72.82000000    66.31000000
   C     32.47000000    72.23000000    66.00000000
   C     32.41000000    70.74000000    66.32000000
   O     33.39000000    70.01000000    66.38000000
   C     32.03000000    72.56000000    64.58000000
   C     31.57000000    74.00000000    64.37000000
   N     32.33000000    74.81000000    63.64000000
   O     30.49000000    74.35000000    64.85000000
   H     34.55000000    72.20000000    66.18000000
   H     31.74000000    72.71000000    66.65000000
   H     31.23000000    71.90000000    64.25000000
   H     32.72000000    72.25000000    63.79000000
   H     33.16000000    74.40000000    63.24000000
   H     32.03000000    75.74000000    63.39000000
   N     31.18000000    70.31000000    66.62000000
   C     30.82000000    68.91000000    66.74000000
   C     30.89000000    68.42000000    68.18000000
   O     31.31000000    69.18000000    69.05000000
   H     30.43000000    70.99000000    66.64000000
   H     31.49000000    68.31000000    66.13000000
   H     29.78000000    68.75000000    66.46000000
   N     30.33000000    67.21000000    68.26000000
   C     30.19000000    66.44000000    69.48000000
   C     31.50000000    66.04000000    70.15000000
   O     31.40000000    65.32000000    71.14000000
   C     29.31000000    67.25000000    70.42000000
   C     28.22000000    66.60000000    71.24000000
   C     28.37000000    66.32000000    72.61000000
   C     27.04000000    66.21000000    70.61000000
   C     27.41000000    65.68000000    73.40000000
   C     26.05000000    65.57000000    71.37000000
   C     26.21000000    65.33000000    72.75000000
   O     25.22000000    64.69000000    73.43000000
   H     30.11000000    66.67000000    67.44000000
   H     29.67000000    65.51000000    69.24000000
   H     28.76000000    68.05000000    69.92000000
   H     29.95000000    67.80000000    71.11000000
   H     29.32000000    66.52000000    73.08000000
   H     26.97000000    66.37000000    69.54000000
   H     27.60000000    65.51000000    74.44000000
   H     25.17000000    65.26000000    70.83000000
   H     24.56000000    64.29000000    72.85000000
   N     32.67000000    66.44000000    69.66000000
   C     34.03000000    65.99000000    69.93000000
   C     34.29000000    64.50000000    69.82000000
   O     35.27000000    64.14000000    69.16000000
   C     34.59000000    66.63000000    71.19000000
   C     34.23000000    68.10000000    71.41000000
   C     36.08000000    66.35000000    71.36000000
   C     34.90000000    68.97000000    70.36000000
   H     32.62000000    67.08000000    68.88000000
   H     34.64000000    66.45000000    69.15000000
   H     34.06000000    66.26000000    72.07000000
   H     34.65000000    68.42000000    72.36000000
   H     33.15000000    68.29000000    71.34000000
   H     36.31000000    65.30000000    71.48000000
   H     36.66000000    66.78000000    70.54000000
   H     36.50000000    66.88000000    72.22000000
   H     34.38000000    68.88000000    69.40000000
   H     34.92000000    70.00000000    70.71000000
   H     35.96000000    68.77000000    70.29000000
   N     33.48000000    63.67000000    70.48000000
   C     33.58000000    62.23000000    70.33000000
   C     34.96000000    61.69000000    70.71000000
   O     35.48000000    60.77000000    70.09000000
   C     32.38000000    61.61000000    71.04000000
   O     32.54000000    61.93000000    72.40000000
   H     32.67000000    64.00000000    70.98000000
   H     33.51000000    62.02000000    69.26000000
   H     32.41000000    60.52000000    71.00000000
   H     31.43000000    61.97000000    70.66000000
   H     31.67000000    61.95000000    72.80000000
   N     35.41000000    62.24000000    71.84000000
   C     36.63000000    61.84000000    72.52000000
   C     37.98000000    62.02000000    71.83000000
   O     39.03000000    61.69000000    72.37000000
   C     36.36000000    60.42000000    73.02000000
   H     34.90000000    63.03000000    72.21000000
   H     36.62000000    62.38000000    73.47000000
   H     36.62000000    59.65000000    72.30000000
   H     37.04000000    60.18000000    73.83000000
   H     35.35000000    60.26000000    73.39000000
   N     37.97000000    62.63000000    70.65000000
   C     39.12000000    62.85000000    69.79000000
   C     39.63000000    64.28000000    69.62000000
   O     39.05000000    65.27000000    70.04000000
   C     38.89000000    62.13000000    68.47000000
   H     37.08000000    62.97000000    70.28000000
   H     39.94000000    62.27000000    70.19000000
   H     37.82000000    61.99000000    68.31000000
   H     39.39000000    62.71000000    67.69000000
   H     39.27000000    61.11000000    68.49000000
   N     40.76000000    64.40000000    68.92000000
   C     41.51000000    65.61000000    68.70000000
   C     41.99000000    66.29000000    69.98000000
   O     42.60000000    67.36000000    69.97000000
   C     40.83000000    66.50000000    67.67000000
   C     40.50000000    65.89000000    66.31000000
   C     39.59000000    66.66000000    65.37000000
   O     38.46000000    66.19000000    65.10000000
   O     39.95000000    67.75000000    64.89000000
   H     41.20000000    63.51000000    68.72000000
   H     42.47000000    65.30000000    68.29000000
   H     41.47000000    67.36000000    67.45000000
   H     39.90000000    66.90000000    68.07000000
   H     39.98000000    64.96000000    66.53000000
   H     41.40000000    65.64000000    65.73000000
   N     41.89000000    65.59000000    71.11000000
   C     42.26000000    66.11000000    72.41000000
   H     43.10500000    66.79000000    72.30200000
   H     41.41500000    66.64700000    72.84100000
   H     42.54000000    65.28500000    73.06600000
   H     41.48000000    64.67000000    71.10000000
  Ca     36.94000000    68.12000000    64.30000000
   O     36.19000000    66.05000000    62.93000000
   H     35.48000000    65.45000000    63.17000000
   H     36.98000000    65.51000000    62.96000000

Ca 1.70



