%chk=Ng-295_loop3_21.0.chk
%nprocshared=48
%mem=10GB
%nosave
#b3lyp/svp scf=(tight,noincore) Test 
#IOP(5/87=12) Density=Current Pop=(MK,readradii) iop(6/33=2) iop(6/42=6)

Ng-295_loop3_21.0 

   0   1
   C     85.78000000    35.06000000    45.56000000
   C     85.83000000    34.25000000    46.85000000
   O     86.23000000    34.79000000    47.88000000
   H     85.64200000    36.11500000    45.79900000
   H     86.71400000    34.93100000    45.01300000
   H     84.94800000    34.71500000    44.94600000
   N     85.42000000    32.99000000    46.96000000
   C     85.58000000    32.17000000    48.15000000
   C     86.24000000    30.82000000    47.94000000
   O     85.95000000    30.21000000    46.92000000
   C     84.17000000    31.94000000    48.70000000
   C     84.16000000    31.21000000    50.04000000
   O     84.32000000    31.89000000    51.08000000
   O     84.16000000    29.96000000    50.08000000
   H     85.13000000    32.51000000    46.12000000
   H     86.17000000    32.66000000    48.92000000
   H     83.70000000    31.41000000    47.88000000
   H     83.65000000    32.89000000    48.73000000
   N     87.23000000    30.44000000    48.77000000
   C     88.05000000    29.26000000    48.66000000
   C     87.26000000    27.95000000    48.67000000
   O     87.71000000    27.00000000    48.04000000
   C     89.21000000    29.40000000    49.64000000
   C     90.37000000    28.45000000    49.38000000
   C     91.49000000    28.69000000    50.38000000
   C     92.71000000    27.89000000    49.91000000
   N     93.90000000    28.07000000    50.75000000
   H     87.47000000    31.02000000    49.56000000
   H     88.56000000    29.32000000    47.70000000
   H     88.87000000    29.20000000    50.66000000
   H     89.66000000    30.39000000    49.66000000
   H     90.75000000    28.63000000    48.38000000
   H     90.07000000    27.40000000    49.32000000
   H     91.06000000    28.55000000    51.37000000
   H     91.69000000    29.76000000    50.40000000
   H     92.94000000    28.05000000    48.86000000
   H     92.46000000    26.85000000    50.12000000
   H     93.82000000    27.70000000    51.69000000
   H     94.66000000    27.58000000    50.30000000
   H     94.27000000    29.01000000    50.74000000
   N     86.11000000    27.78000000    49.32000000
   C     85.13000000    26.73000000    49.16000000
   C     83.89000000    27.08000000    48.35000000
   O     82.98000000    26.26000000    48.16000000
   C     84.64000000    26.13000000    50.47000000
   C     84.22000000    27.20000000    51.47000000
   O     83.03000000    27.60000000    51.56000000
   O     85.08000000    27.77000000    52.17000000
   H     85.85000000    28.54000000    49.94000000
   H     85.69000000    25.90000000    48.73000000
   H     85.43000000    25.45000000    50.81000000
   H     83.88000000    25.36000000    50.37000000
   N     83.89000000    28.27000000    47.75000000
   C     82.77000000    28.68000000    46.93000000
   C     81.48000000    28.97000000    47.68000000
   O     80.46000000    29.15000000    47.02000000
   H     84.66000000    28.88000000    47.99000000
   H     82.56000000    28.02000000    46.09000000
   H     83.00000000    29.60000000    46.39000000
   N     81.46000000    28.93000000    49.02000000
   C     80.33000000    29.40000000    49.78000000
   C     80.79000000    30.65000000    50.53000000
   O     81.66000000    30.51000000    51.39000000
   C     79.77000000    28.27000000    50.63000000
   C     78.45000000    28.58000000    51.31000000
   N     77.64000000    27.61000000    51.72000000
   O     78.21000000    29.77000000    51.53000000
   H     82.34000000    28.84000000    49.51000000
   H     79.55000000    29.69000000    49.08000000
   H     80.49000000    27.87000000    51.36000000
   H     79.61000000    27.44000000    49.94000000
   H     78.00000000    26.68000000    51.55000000
   H     76.84000000    27.77000000    52.32000000
   N     80.02000000    31.74000000    50.50000000
   C     80.48000000    33.03000000    50.97000000
   C     80.32000000    33.25000000    52.47000000
   O     80.39000000    34.42000000    52.84000000
   H     79.16000000    31.63000000    49.99000000
   H     80.11000000    33.81000000    50.30000000
   H     81.54000000    33.06000000    50.72000000
   N     80.21000000    32.22000000    53.31000000
   C     80.57000000    32.29000000    54.71000000
   C     82.06000000    32.28000000    55.03000000
   O     82.81000000    31.43000000    54.54000000
   C     79.86000000    31.13000000    55.39000000
   C     78.35000000    31.23000000    55.47000000
   C     77.60000000    30.38000000    54.65000000
   C     77.75000000    32.10000000    56.39000000
   C     76.20000000    30.47000000    54.64000000
   C     76.35000000    32.12000000    56.38000000
   C     75.55000000    31.43000000    55.44000000
   O     74.20000000    31.60000000    55.47000000
   H     80.11000000    31.31000000    52.89000000
   H     80.13000000    33.21000000    55.09000000
   H     80.07000000    30.97000000    56.45000000
   H     80.17000000    30.15000000    55.02000000
   H     78.11000000    29.63000000    54.06000000
   H     78.40000000    32.68000000    57.02000000
   H     75.56000000    29.91000000    53.97000000
   H     75.82000000    32.81000000    57.03000000
   H     73.86000000    32.17000000    56.17000000
   N     82.43000000    33.26000000    55.85000000
   C     83.66000000    33.59000000    56.56000000
   C     84.23000000    32.44000000    57.37000000
   O     84.06000000    31.25000000    57.12000000
   C     84.73000000    34.35000000    55.80000000
   C     84.34000000    35.78000000    55.42000000
   C     85.29000000    33.60000000    54.59000000
   C     84.12000000    36.82000000    56.51000000
   H     81.63000000    33.79000000    56.16000000
   H     83.33000000    34.29000000    57.33000000
   H     85.49000000    34.51000000    56.56000000
   H     83.39000000    35.76000000    54.88000000
   H     85.11000000    36.24000000    54.82000000
   H     85.57000000    32.58000000    54.87000000
   H     84.54000000    33.43000000    53.82000000
   H     86.11000000    34.15000000    54.13000000
   H     83.20000000    36.76000000    57.09000000
   H     84.92000000    36.71000000    57.24000000
   H     84.23000000    37.83000000    56.12000000
   N     84.89000000    32.83000000    58.47000000
   C     85.50000000    31.99000000    59.48000000
   C     85.19000000    32.39000000    60.91000000
   O     85.60000000    31.69000000    61.84000000
   C     86.97000000    31.76000000    59.15000000
   O     87.76000000    32.93000000    59.23000000
   H     85.11000000    33.81000000    58.56000000
   H     85.03000000    31.01000000    59.33000000
   H     87.08000000    31.26000000    58.19000000
   H     87.33000000    31.00000000    59.85000000
   H     88.67000000    32.77000000    58.96000000
   N     84.61000000    33.55000000    61.22000000
   C     84.46000000    34.16000000    62.53000000
   C     85.59000000    34.18000000    63.54000000
   O     85.68000000    33.25000000    64.34000000
   C     83.15000000    33.59000000    63.06000000
   H     84.18000000    34.08000000    60.47000000
   H     84.25000000    35.22000000    62.43000000
   H     82.33000000    33.84000000    62.38000000
   H     83.17000000    32.51000000    63.19000000
   H     82.91000000    33.98000000    64.05000000
   N     86.53000000    35.13000000    63.51000000
   C     86.73000000    36.19000000    62.54000000
   C     86.62000000    37.59000000    63.12000000
   O     86.69000000    37.75000000    64.34000000
   C     88.13000000    35.81000000    62.06000000
   H     87.26000000    34.98000000    64.19000000
   H     85.99000000    36.16000000    61.74000000
   H     88.76000000    35.82000000    62.94000000
   H     88.23000000    34.79000000    61.68000000
   H     88.61000000    36.46000000    61.33000000
   N     86.62000000    38.65000000    62.31000000
   C     86.32000000    38.70000000    60.89000000
   C     84.94000000    39.27000000    60.62000000
   O     84.17000000    38.78000000    59.80000000
   C     87.43000000    39.47000000    60.18000000
   C     86.88000000    39.94000000    58.84000000
   C     88.03000000    40.38000000    57.93000000
   O     88.80000000    39.56000000    57.39000000
   O     88.19000000    41.61000000    57.82000000
   H     86.92000000    39.51000000    62.73000000
   H     86.37000000    37.76000000    60.35000000
   H     88.19000000    38.70000000    60.02000000
   H     87.71000000    40.37000000    60.72000000
   H     86.17000000    40.76000000    58.97000000
   H     86.40000000    39.08000000    58.38000000
   N     84.65000000    40.35000000    61.37000000
   C     83.42000000    41.10000000    61.43000000
   H     82.64300000    40.48700000    61.88700000
   H     83.57100000    41.99900000    62.02700000
   H     83.11500000    41.38000000    60.42200000
   H     85.43000000    40.74000000    61.88000000
  Ca     83.80000000    29.95000000    52.73000000
   O     86.45000000    30.46000000    52.71000000
   H     87.01000000    29.72000000    52.97000000
   H     87.05000000    31.05000000    52.25000000

Ca 1.70



