%chk=Ng-293_loop3_73.0.chk
%nprocshared=48
%mem=10GB
%nosave
#b3lyp/svp scf=(tight,noincore) Test 
#IOP(5/87=12) Density=Current Pop=(MK,readradii) iop(6/33=2) iop(6/42=6)

Ng-293_loop3_73.0 

   0   1
   C     66.36000000    22.41000000     4.55000000
   C     66.78000000    22.87000000     3.16000000
   O     66.17000000    22.30000000     2.26000000
   H     65.33100000    22.05100000     4.51800000
   H     67.01500000    21.60400000     4.88000000
   H     66.43100000    23.24500000     5.24700000
   N     67.57000000    23.92000000     2.95000000
   C     67.98000000    24.52000000     1.70000000
   C     67.29000000    25.85000000     1.44000000
   O     66.59000000    26.32000000     2.33000000
   C     69.50000000    24.67000000     1.67000000
   C     70.14000000    25.49000000     2.78000000
   O     71.36000000    25.42000000     3.04000000
   O     69.42000000    26.27000000     3.45000000
   H     67.85000000    24.45000000     3.77000000
   H     67.70000000    23.86000000     0.87000000
   H     69.79000000    25.12000000     0.72000000
   H     69.97000000    23.69000000     1.65000000
   N     67.52000000    26.30000000     0.21000000
   C     67.03000000    27.47000000    -0.50000000
   C     67.39000000    28.86000000     0.00000000
   O     67.63000000    29.74000000    -0.82000000
   C     65.56000000    27.27000000    -0.85000000
   C     64.99000000    28.45000000    -1.63000000
   C     63.60000000    28.11000000    -2.17000000
   C     63.01000000    29.21000000    -3.05000000
   N     61.55000000    29.13000000    -3.19000000
   H     68.14000000    25.69000000    -0.31000000
   H     67.53000000    27.44000000    -1.47000000
   H     64.99000000    27.12000000     0.06000000
   H     65.44000000    26.32000000    -1.38000000
   H     65.66000000    28.62000000    -2.47000000
   H     64.81000000    29.24000000    -0.90000000
   H     62.90000000    27.98000000    -1.34000000
   H     63.76000000    27.29000000    -2.86000000
   H     63.47000000    29.16000000    -4.04000000
   H     63.31000000    30.14000000    -2.59000000
   H     61.04000000    29.31000000    -2.34000000
   H     61.27000000    29.85000000    -3.85000000
   H     61.35000000    28.27000000    -3.68000000
   N     67.48000000    29.12000000     1.31000000
   C     67.54000000    30.43000000     1.93000000
   C     68.27000000    30.50000000     3.26000000
   O     68.22000000    29.57000000     4.06000000
   C     66.12000000    30.98000000     1.90000000
   C     66.19000000    32.35000000     2.56000000
   O     66.50000000    33.35000000     1.87000000
   O     66.15000000    32.39000000     3.81000000
   H     67.23000000    28.41000000     1.98000000
   H     68.14000000    31.12000000     1.34000000
   H     65.45000000    30.32000000     2.45000000
   H     65.78000000    31.05000000     0.86000000
   N     69.09000000    31.56000000     3.35000000
   C     70.02000000    31.76000000     4.44000000
   C     69.33000000    32.20000000     5.72000000
   O     68.17000000    31.93000000     6.02000000
   H     69.06000000    32.29000000     2.65000000
   H     70.73000000    32.53000000     4.15000000
   H     70.59000000    30.85000000     4.60000000
   N     70.13000000    32.71000000     6.66000000
   C     69.71000000    32.77000000     8.05000000
   C     69.31000000    34.15000000     8.57000000
   O     68.27000000    34.26000000     9.22000000
   C     70.79000000    32.15000000     8.93000000
   C     71.13000000    30.68000000     8.70000000
   N     71.94000000    30.12000000     9.59000000
   O     70.54000000    29.97000000     7.89000000
   H     71.12000000    32.82000000     6.48000000
   H     68.80000000    32.18000000     8.18000000
   H     70.38000000    32.22000000     9.94000000
   H     71.71000000    32.73000000     8.86000000
   H     72.42000000    30.80000000    10.17000000
   H     72.43000000    29.29000000     9.30000000
   N     70.01000000    35.22000000     8.20000000
   C     69.74000000    36.55000000     8.70000000
   C     69.97000000    36.76000000    10.19000000
   O     70.63000000    35.94000000    10.82000000
   H     70.78000000    35.13000000     7.55000000
   H     68.71000000    36.80000000     8.44000000
   H     70.40000000    37.18000000     8.10000000
   N     69.31000000    37.76000000    10.78000000
   C     69.18000000    37.99000000    12.20000000
   C     68.49000000    36.90000000    13.01000000
   O     68.56000000    36.86000000    14.24000000
   C     70.51000000    38.40000000    12.84000000
   C     71.36000000    39.53000000    12.33000000
   C     72.49000000    39.79000000    13.11000000
   C     71.10000000    40.33000000    11.21000000
   C     73.39000000    40.81000000    12.76000000
   C     71.98000000    41.37000000    10.87000000
   C     73.14000000    41.61000000    11.63000000
   O     73.98000000    42.65000000    11.34000000
   H     68.66000000    38.21000000    10.16000000
   H     68.53000000    38.87000000    12.23000000
   H     71.14000000    37.52000000    12.96000000
   H     70.25000000    38.74000000    13.84000000
   H     72.78000000    39.23000000    13.99000000
   H     70.26000000    40.12000000    10.56000000
   H     74.27000000    40.99000000    13.36000000
   H     71.82000000    42.00000000    10.01000000
   H     74.08000000    42.83000000    10.41000000
   N     67.91000000    35.94000000    12.29000000
   C     67.07000000    34.84000000    12.72000000
   C     65.73000000    35.27000000    13.32000000
   O     64.71000000    34.71000000    12.93000000
   C     67.83000000    33.76000000    13.49000000
   C     69.16000000    33.46000000    12.81000000
   C     66.85000000    32.62000000    13.69000000
   C     69.98000000    32.27000000    13.30000000
   H     67.94000000    36.14000000    11.30000000
   H     66.78000000    34.31000000    11.81000000
   H     68.07000000    34.19000000    14.46000000
   H     69.70000000    34.40000000    12.90000000
   H     69.11000000    33.34000000    11.73000000
   H     67.41000000    31.76000000    14.05000000
   H     66.03000000    32.86000000    14.37000000
   H     66.41000000    32.35000000    12.73000000
   H     69.52000000    31.38000000    12.86000000
   H     71.02000000    32.43000000    13.00000000
   H     70.00000000    32.27000000    14.39000000
   N     65.66000000    36.24000000    14.22000000
   C     64.55000000    37.11000000    14.57000000
   C     63.34000000    36.51000000    15.26000000
   O     62.31000000    37.17000000    15.31000000
   C     65.12000000    38.34000000    15.27000000
   O     66.27000000    38.95000000    14.73000000
   H     66.57000000    36.66000000    14.39000000
   H     64.15000000    37.46000000    13.62000000
   H     65.37000000    38.00000000    16.27000000
   H     64.41000000    39.17000000    15.28000000
   H     65.99000000    39.44000000    13.96000000
   N     63.35000000    35.28000000    15.78000000
   C     62.19000000    34.48000000    16.12000000
   C     61.30000000    34.23000000    14.91000000
   O     60.08000000    34.32000000    14.99000000
   C     61.60000000    34.87000000    17.47000000
   H     64.21000000    34.77000000    15.95000000
   H     62.60000000    33.47000000    16.22000000
   H     61.32000000    35.92000000    17.53000000
   H     60.74000000    34.22000000    17.67000000
   H     62.38000000    34.68000000    18.21000000
   N     61.89000000    34.02000000    13.73000000
   C     61.17000000    33.78000000    12.50000000
   C     61.25000000    32.38000000    11.90000000
   O     62.14000000    31.60000000    12.22000000
   C     61.55000000    34.97000000    11.62000000
   H     62.89000000    34.02000000    13.56000000
   H     60.14000000    33.89000000    12.83000000
   H     61.05000000    35.89000000    11.95000000
   H     62.63000000    35.06000000    11.60000000
   H     61.15000000    34.75000000    10.63000000
   N     60.38000000    32.07000000    10.94000000
   C     60.13000000    30.72000000    10.47000000
   C     59.71000000    29.65000000    11.47000000
   O     59.87000000    28.47000000    11.16000000
   C     61.23000000    30.26000000     9.51000000
   C     61.37000000    31.37000000     8.46000000
   C     62.22000000    30.83000000     7.31000000
   O     63.46000000    30.97000000     7.40000000
   O     61.63000000    30.20000000     6.41000000
   H     59.72000000    32.77000000    10.63000000
   H     59.22000000    30.83000000     9.87000000
   H     60.92000000    29.39000000     8.94000000
   H     62.10000000    29.97000000    10.09000000
   H     61.97000000    32.15000000     8.92000000
   H     60.41000000    31.66000000     8.04000000
   N     59.00000000    29.96000000    12.55000000
   C     58.69000000    29.18000000    13.73000000
   H     57.66300000    28.82000000    13.66800000
   H     59.36900000    28.33000000    13.79300000
   H     58.80300000    29.80200000    14.61800000
   H     58.55000000    30.86000000    12.50000000
  Ca     65.46000000    32.06000000     6.30000000
   O     66.31000000    29.60000000     6.64000000
   H     67.18000000    29.23000000     6.53000000
   H     65.76000000    29.11000000     6.03000000

Ca 1.70



