%chk=Ng-295_loop3_26.0.chk
%nprocshared=48
%mem=10GB
%nosave
#b3lyp/svp scf=(tight,noincore) Test 
#IOP(5/87=12) Density=Current Pop=(MK,readradii) iop(6/33=2) iop(6/42=6)

Ng-295_loop3_26.0 

   0   1
   C     89.32900000    72.76900000    58.26000000
   C     88.85900000    71.32900000    58.41000000
   O     87.66900000    71.10900000    58.66000000
   H     90.29700000    72.78400000    57.75900000
   H     88.60500000    73.32800000    57.66700000
   H     89.42300000    73.22600000    59.24500000
   N     89.76900000    70.36900000    58.22000000
   C     89.47900000    68.95900000    58.37000000
   C     89.16900000    68.59900000    59.82000000
   O     89.87900000    69.00900000    60.74000000
   C     90.67900000    68.22900000    57.78000000
   C     90.39900000    66.72900000    57.70000000
   O     90.36900000    66.09900000    56.62000000
   O     90.22900000    66.03900000    58.73000000
   H     90.66900000    70.74900000    57.94000000
   H     88.57900000    68.63900000    57.84000000
   H     91.52900000    68.38900000    58.44000000
   H     90.95900000    68.74900000    56.86000000
   N     88.12900000    67.79900000    60.05000000
   C     87.58900000    67.54900000    61.37000000
   C     88.49900000    66.81900000    62.35000000
   O     88.44900000    67.06900000    63.55000000
   C     86.26900000    66.80900000    61.21000000
   C     86.40900000    65.37900000    60.69000000
   C     85.09900000    64.61900000    60.51000000
   C     85.23900000    63.50900000    59.47000000
   N     86.20900000    62.45900000    59.84000000
   H     87.55900000    67.45900000    59.29000000
   H     87.36900000    68.53900000    61.78000000
   H     85.59900000    67.36900000    60.56000000
   H     85.68900000    66.83900000    62.14000000
   H     87.07900000    64.78900000    61.32000000
   H     86.82900000    65.46900000    59.69000000
   H     84.35900000    65.35900000    60.21000000
   H     84.86900000    64.19900000    61.49000000
   H     85.56900000    63.89900000    58.51000000
   H     84.21900000    63.13900000    59.37000000
   H     87.14900000    62.81900000    59.88000000
   H     86.05900000    62.09900000    60.78000000
   H     86.24900000    61.72900000    59.14000000
   N     89.33900000    65.94900000    61.79000000
   C     90.18900000    65.01900000    62.51000000
   C     91.67900000    65.23900000    62.32000000
   O     92.52900000    64.76900000    63.09000000
   C     89.91900000    63.58900000    62.03000000
   C     89.82900000    63.47900000    60.52000000
   O     88.71900000    63.60900000    59.95000000
   O     90.86900000    63.28900000    59.86000000
   H     89.33900000    65.83900000    60.79000000
   H     90.01900000    65.17900000    63.58000000
   H     88.98900000    63.30900000    62.51000000
   H     90.65900000    62.89900000    62.44000000
   N     92.04900000    65.94900000    61.25000000
   C     93.40900000    66.33900000    60.95000000
   C     93.92900000    65.65900000    59.69000000
   O     94.60900000    66.31900000    58.91000000
   H     91.34900000    66.05900000    60.53000000
   H     94.05900000    66.15900000    61.81000000
   H     93.39900000    67.40900000    60.74000000
   N     93.58900000    64.40900000    59.34000000
   C     94.07900000    63.56900000    58.26000000
   C     93.34900000    63.76900000    56.94000000
   O     92.12900000    63.63900000    56.96000000
   C     93.94900000    62.12900000    58.75000000
   C     94.83900000    61.18900000    57.95000000
   N     95.76900000    60.47900000    58.58000000
   O     94.61900000    61.04900000    56.75000000
   H     92.91900000    63.94900000    59.93000000
   H     95.13900000    63.79900000    58.16000000
   H     92.90900000    61.85900000    58.56000000
   H     94.16900000    62.06900000    59.82000000
   H     95.83900000    60.57900000    59.58000000
   H     96.46900000    59.93900000    58.08000000
   N     94.06900000    63.97900000    55.83000000
   C     93.41900000    64.20900000    54.56000000
   C     92.69900000    63.02900000    53.94000000
   O     92.12900000    63.15900000    52.86000000
   H     95.06900000    63.83900000    55.88000000
   H     94.31900000    64.37900000    53.97000000
   H     92.75900000    65.06900000    54.70000000
   N     92.64900000    61.86900000    54.60000000
   C     91.76900000    60.76900000    54.27000000
   C     90.27900000    61.08900000    54.39000000
   O     89.83900000    61.70900000    55.36000000
   C     92.05900000    59.44900000    54.99000000
   C     91.17900000    58.22900000    55.08000000
   C     90.50900000    58.04900000    56.29000000
   C     91.03900000    57.36900000    53.98000000
   C     89.55900000    57.01900000    56.38000000
   C     90.14900000    56.28900000    54.12000000
   C     89.42900000    56.10900000    55.32000000
   O     88.48900000    55.11900000    55.39000000
   H     93.15900000    61.76900000    55.47000000
   H     91.91900000    60.43900000    53.24000000
   H     92.13900000    59.72900000    56.04000000
   H     93.03900000    59.10900000    54.67000000
   H     90.64900000    58.50900000    57.26000000
   H     91.47900000    57.66900000    53.04000000
   H     88.97900000    56.86900000    57.28000000
   H     89.93900000    55.67900000    53.26000000
   H     88.62900000    54.50900000    54.66000000
   N     89.52900000    60.68900000    53.37000000
   C     88.08900000    60.79900000    53.20000000
   C     87.39900000    59.97900000    54.28000000
   O     87.60900000    60.05900000    55.49000000
   C     87.67900000    62.24900000    52.96000000
   C     86.15900000    62.24900000    52.89000000
   C     88.34900000    62.77900000    51.70000000
   C     85.57900000    63.64900000    53.04000000
   H     90.05900000    60.29900000    52.61000000
   H     87.82900000    60.18900000    52.33000000
   H     87.94900000    62.83900000    53.83000000
   H     85.64900000    61.70900000    53.70000000
   H     85.74900000    61.85900000    51.96000000
   H     89.41900000    62.59900000    51.76000000
   H     87.87900000    62.41900000    50.78000000
   H     88.34900000    63.86900000    51.59000000
   H     84.48900000    63.65900000    53.10000000
   H     86.04900000    64.07900000    53.92000000
   H     85.89900000    64.26900000    52.20000000
   N     86.44900000    59.19900000    53.76000000
   C     85.49900000    58.38900000    54.50000000
   C     84.77900000    57.28900000    53.74000000
   O     84.16900000    56.42900000    54.37000000
   C     84.38900000    59.26900000    55.05000000
   O     83.64900000    59.87900000    54.01000000
   H     86.23900000    59.23900000    52.77000000
   H     86.11900000    58.02900000    55.33000000
   H     84.80900000    60.09900000    55.61000000
   H     83.70900000    58.65900000    55.65000000
   H     83.46900000    60.75900000    54.36000000
   N     84.78900000    57.37900000    52.40000000
   C     84.24900000    56.45900000    51.42000000
   C     82.85900000    55.90900000    51.72000000
   O     82.72900000    54.69900000    51.87000000
   C     85.34900000    55.43900000    51.12000000
   H     85.34900000    58.09900000    51.97000000
   H     84.17900000    57.04900000    50.50000000
   H     85.84900000    55.13900000    52.04000000
   H     85.02900000    54.59900000    50.51000000
   H     86.10900000    55.95900000    50.54000000
   N     81.76900000    56.65900000    51.86000000
   C     81.59900000    58.07900000    51.63000000
   C     81.06900000    58.42900000    50.24000000
   O     80.13900000    57.80900000    49.74000000
   C     80.71900000    58.47900000    52.81000000
   H     80.94900000    56.12900000    52.12000000
   H     82.56900000    58.51900000    51.83000000
   H     79.65900000    58.28900000    52.66000000
   H     80.95900000    58.03900000    53.78000000
   H     80.70900000    59.55900000    52.93000000
   N     81.49900000    59.56900000    49.69000000
   C     82.29900000    60.62900000    50.27000000
   C     83.23900000    61.13900000    49.19000000
   O     84.37900000    61.40900000    49.55000000
   C     81.46900000    61.76900000    50.86000000
   C     82.22900000    62.83900000    51.63000000
   C     81.38900000    63.87900000    52.36000000
   O     80.90900000    64.82900000    51.71000000
   O     81.04900000    63.69900000    53.55000000
   H     81.23900000    59.75900000    48.74000000
   H     83.00900000    60.29900000    51.04000000
   H     80.66900000    61.39900000    51.49000000
   H     80.96900000    62.27900000    50.04000000
   H     82.87900000    63.29900000    50.88000000
   H     82.72900000    62.24900000    52.40000000
   N     82.78900000    61.32900000    47.94000000
   C     83.50900000    61.71900000    46.75000000
   H     84.50700000    61.28000000    46.76900000
   H     82.97400000    61.36500000    45.86900000
   H     83.59100000    62.80500000    46.71400000
   H     81.77900000    61.31900000    47.87000000
  Ca     89.67000000    63.64000000    57.45000000
   O     89.52000000    60.97000000    57.93000000
   H     88.91000000    60.55000000    58.53000000
   H     89.48000000    60.44000000    57.14000000

Ca 1.70



