%chk=Ng-295_loop3_14.0.chk
%nprocshared=48
%mem=10GB
%nosave
#b3lyp/svp scf=(tight,noincore) Test 
#IOP(5/87=12) Density=Current Pop=(MK,readradii) iop(6/33=2) iop(6/42=6)

Ng-295_loop3_14.0 

   0   1
   C     -4.12800000    58.60000000    27.52000000
   C     -3.57800000    57.18000000    27.43000000
   O     -4.13800000    56.23000000    27.97000000
   H     -5.09400000    58.58400000    28.02400000
   H     -3.43500000    59.22400000    28.08400000
   H     -4.25000000    59.00700000    26.51600000
   N     -2.41800000    57.01000000    26.79000000
   C     -1.67800000    55.79000000    26.51000000
   C     -0.29800000    55.79000000    27.15000000
   O      0.60200000    56.46000000    26.66000000
   C     -1.49800000    55.59000000    25.01000000
   C     -0.73800000    54.37000000    24.50000000
   O     -0.43800000    53.41000000    25.25000000
   O     -0.27800000    54.38000000    23.34000000
   H     -2.08800000    57.84000000    26.31000000
   H     -2.23800000    54.93000000    26.87000000
   H     -1.11800000    56.52000000    24.60000000
   H     -2.54800000    55.43000000    24.74000000
   N     -0.16800000    55.04000000    28.25000000
   C      0.82200000    55.22000000    29.29000000
   C      2.25200000    54.95000000    28.83000000
   O      3.18200000    55.31000000    29.56000000
   C      0.50200000    54.43000000    30.55000000
   C      0.89200000    52.96000000    30.43000000
   C      0.54200000    52.20000000    31.71000000
   C      0.97200000    50.76000000    31.46000000
   N      1.02200000    50.01000000    32.73000000
   H     -1.00800000    54.55000000    28.52000000
   H      0.73200000    56.26000000    29.60000000
   H     -0.51800000    54.68000000    30.84000000
   H      1.11200000    54.76000000    31.40000000
   H      1.94200000    52.84000000    30.19000000
   H      0.34200000    52.53000000    29.59000000
   H     -0.52800000    52.35000000    31.81000000
   H      1.14200000    52.60000000    32.54000000
   H      1.99200000    50.86000000    31.09000000
   H      0.31200000    50.22000000    30.77000000
   H      1.13200000    49.03000000    32.51000000
   H      1.76200000    50.31000000    33.35000000
   H      0.13200000    50.05000000    33.21000000
   N      2.48200000    54.32000000    27.68000000
   C      3.80200000    54.06000000    27.14000000
   C      4.10200000    55.19000000    26.16000000
   O      5.23200000    55.18000000    25.66000000
   C      3.86200000    52.73000000    26.40000000
   C      2.72200000    52.54000000    25.41000000
   O      2.42200000    53.45000000    24.62000000
   O      2.04200000    51.49000000    25.35000000
   H      1.69200000    54.08000000    27.10000000
   H      4.56200000    54.14000000    27.91000000
   H      3.71200000    51.92000000    27.11000000
   H      4.79200000    52.55000000    25.84000000
   N      3.29200000    56.22000000    25.89000000
   C      3.57200000    57.37000000    25.06000000
   C      3.80200000    57.09000000    23.58000000
   O      4.43200000    57.87000000    22.88000000
   H      2.36200000    56.15000000    26.28000000
   H      4.45200000    57.87000000    25.46000000
   H      2.67200000    57.98000000    25.15000000
   N      3.37200000    55.95000000    23.04000000
   C      3.64200000    55.51000000    21.68000000
   C      2.35200000    55.04000000    21.03000000
   O      1.82200000    53.98000000    21.33000000
   C      4.71200000    54.43000000    21.77000000
   C      5.13200000    53.93000000    20.39000000
   N      6.14200000    54.60000000    19.82000000
   O      4.58200000    53.03000000    19.77000000
   H      2.98200000    55.27000000    23.68000000
   H      4.04200000    56.30000000    21.04000000
   H      4.32200000    53.62000000    22.38000000
   H      5.56200000    54.90000000    22.26000000
   H      6.66200000    55.28000000    20.36000000
   H      6.21200000    54.63000000    18.82000000
   N      1.82200000    55.77000000    20.04000000
   C      0.45200000    55.61000000    19.58000000
   C      0.14200000    54.37000000    18.75000000
   O     -0.83800000    54.40000000    18.00000000
   H      2.22200000    56.65000000    19.75000000
   H      0.15200000    56.50000000    19.04000000
   H     -0.14800000    55.53000000    20.49000000
   N      0.82200000    53.24000000    18.95000000
   C      0.65200000    51.93000000    18.36000000
   C      0.36200000    50.85000000    19.40000000
   O      0.69200000    50.99000000    20.58000000
   C      1.85200000    51.73000000    17.44000000
   C      2.07200000    52.66000000    16.27000000
   C      1.70200000    52.39000000    14.94000000
   C      2.89200000    53.76000000    16.57000000
   C      2.14200000    53.25000000    13.93000000
   C      3.25200000    54.68000000    15.58000000
   C      2.89200000    54.40000000    14.25000000
   O      3.24200000    55.30000000    13.28000000
   H      1.52200000    53.31000000    19.68000000
   H     -0.25800000    52.03000000    17.76000000
   H      1.66200000    50.73000000    17.06000000
   H      2.72200000    51.59000000    18.08000000
   H      1.19200000    51.49000000    14.64000000
   H      3.26200000    53.87000000    17.58000000
   H      1.96200000    53.02000000    12.89000000
   H      3.88200000    55.53000000    15.80000000
   H      3.81200000    55.98000000    13.66000000
   N     -0.40800000    49.87000000    18.93000000
   C     -0.86800000    48.72000000    19.68000000
   C      0.24200000    47.73000000    19.99000000
   O      1.20200000    48.08000000    20.68000000
   C     -1.81800000    49.07000000    20.83000000
   C     -2.28800000    47.79000000    21.51000000
   C     -2.94800000    50.01000000    20.42000000
   C     -3.18800000    47.96000000    22.73000000
   H     -0.44800000    49.88000000    17.92000000
   H     -1.52800000    48.21000000    18.97000000
   H     -1.18800000    49.56000000    21.58000000
   H     -1.46800000    47.17000000    21.90000000
   H     -2.72800000    47.20000000    20.71000000
   H     -2.48800000    50.90000000    19.99000000
   H     -3.53800000    49.59000000    19.61000000
   H     -3.44800000    50.35000000    21.33000000
   H     -4.16800000    48.26000000    22.36000000
   H     -3.22800000    46.98000000    23.21000000
   H     -2.79800000    48.71000000    23.41000000
   N      0.15200000    46.45000000    19.62000000
   C      1.10200000    45.42000000    20.01000000
   C      1.05200000    44.16000000    19.16000000
   O      1.85200000    43.27000000    19.41000000
   C      0.73200000    45.11000000    21.46000000
   O     -0.49800000    44.42000000    21.53000000
   H     -0.70800000    46.19000000    19.15000000
   H      2.13200000    45.78000000    19.97000000
   H      0.65200000    46.08000000    21.94000000
   H      1.50200000    44.51000000    21.94000000
   H     -0.67800000    44.21000000    22.45000000
   N      0.14200000    44.02000000    18.19000000
   C      0.00200000    42.84000000    17.36000000
   C      0.25200000    41.45000000    17.95000000
   O      1.16200000    40.74000000    17.54000000
   C      0.76200000    43.03000000    16.06000000
   H     -0.46800000    44.79000000    17.97000000
   H     -1.02800000    42.75000000    17.00000000
   H      0.64200000    42.28000000    15.27000000
   H      0.53200000    44.00000000    15.62000000
   H      1.81200000    42.97000000    16.36000000
   N     -0.45800000    40.98000000    18.98000000
   C     -1.50800000    41.54000000    19.80000000
   C     -2.89800000    41.27000000    19.24000000
   O     -3.13800000    40.15000000    18.80000000
   C     -1.39800000    40.88000000    21.17000000
   H     -0.19800000    40.03000000    19.20000000
   H     -1.34800000    42.61000000    19.88000000
   H     -1.55800000    39.81000000    21.11000000
   H     -0.45800000    41.07000000    21.69000000
   H     -2.24800000    41.07000000    21.82000000
   N     -3.89800000    42.15000000    19.29000000
   C     -4.01800000    43.44000000    19.94000000
   C     -4.78800000    44.38000000    19.02000000
   O     -4.32800000    45.47000000    18.70000000
   C     -4.71800000    43.37000000    21.30000000
   C     -4.73800000    44.74000000    21.96000000
   C     -5.71800000    44.83000000    23.12000000
   O     -6.72800000    45.56000000    23.07000000
   O     -5.49800000    44.06000000    24.08000000
   H     -4.77800000    41.77000000    18.96000000
   H     -3.02800000    43.86000000    20.10000000
   H     -4.17800000    42.75000000    22.01000000
   H     -5.74800000    43.03000000    21.15000000
   H     -4.96800000    45.53000000    21.24000000
   H     -3.69800000    44.77000000    22.30000000
   N     -5.92800000    43.85000000    18.58000000
   C     -6.79800000    44.44000000    17.58000000
   H     -7.68700000    44.84300000    18.06500000
   H     -6.27000000    45.24300000    17.06600000
   H     -7.09200000    43.67800000    16.85800000
   H     -6.37800000    43.16000000    19.16000000
  Ca      0.90000000    52.09000000    23.11000000
   O      3.17000000    50.88000000    22.27000000
   H      3.20000000    50.17000000    21.63000000
   H      4.09000000    51.01000000    22.53000000

Ca 1.70



