%chk=Ng-295_loop3_0.0.chk
%nprocshared=48
%mem=10GB
%nosave
#b3lyp/svp scf=(tight,noincore) Test 
#IOP(5/87=12) Density=Current Pop=(MK,readradii) iop(6/33=2) iop(6/42=6)

Ng-295_loop3_0.0 

   0   1
   C     83.64000000    37.56000000    71.05000000
   C     84.15000000    37.97000000    72.43000000
   O     83.37000000    38.41000000    73.27000000
   H     82.76100000    38.15200000    70.79800000
   H     84.41900000    37.73300000    70.30800000
   H     83.37500000    36.50300000    71.05900000
   N     85.42000000    37.84000000    72.80000000
   C     86.01000000    38.28000000    74.05000000
   C     87.34000000    38.97000000    73.75000000
   O     88.18000000    38.40000000    73.06000000
   C     86.23000000    37.18000000    75.09000000
   C     86.80000000    37.67000000    76.41000000
   O     86.15000000    37.50000000    77.47000000
   O     87.93000000    38.20000000    76.54000000
   H     86.11000000    37.36000000    72.24000000
   H     85.38000000    39.09000000    74.42000000
   H     86.99000000    36.48000000    74.75000000
   H     85.28000000    36.68000000    75.27000000
   N     87.54000000    40.12000000    74.40000000
   C     88.64000000    41.01000000    74.10000000
   C     90.01000000    40.53000000    74.56000000
   O     91.00000000    41.14000000    74.17000000
   C     88.22000000    42.43000000    74.49000000
   C     88.73000000    43.57000000    73.62000000
   C     88.00000000    44.87000000    73.94000000
   C     88.41000000    45.98000000    72.97000000
   N     88.21000000    47.35000000    73.47000000
   H     86.83000000    40.32000000    75.10000000
   H     88.72000000    40.92000000    73.02000000
   H     88.61000000    42.60000000    75.50000000
   H     87.14000000    42.59000000    74.46000000
   H     88.45000000    43.28000000    72.61000000
   H     89.81000000    43.69000000    73.66000000
   H     88.22000000    45.22000000    74.95000000
   H     86.91000000    44.82000000    73.91000000
   H     88.04000000    45.74000000    71.98000000
   H     89.50000000    46.00000000    72.96000000
   H     88.43000000    48.00000000    72.74000000
   H     87.22000000    47.39000000    73.68000000
   H     88.75000000    47.52000000    74.31000000
   N     90.12000000    39.49000000    75.38000000
   C     91.33000000    38.76000000    75.72000000
   C     91.31000000    37.30000000    75.32000000
   O     92.27000000    36.56000000    75.52000000
   C     91.83000000    38.96000000    77.15000000
   C     90.85000000    38.48000000    78.21000000
   O     90.25000000    37.39000000    78.07000000
   O     90.47000000    39.28000000    79.09000000
   H     89.21000000    39.19000000    75.70000000
   H     92.08000000    39.26000000    75.10000000
   H     92.05000000    40.01000000    77.30000000
   H     92.74000000    38.36000000    77.23000000
   N     90.17000000    36.81000000    74.83000000
   C     90.02000000    35.47000000    74.29000000
   C     89.61000000    34.46000000    75.35000000
   O     89.35000000    33.33000000    74.94000000
   H     89.44000000    37.48000000    74.64000000
   H     90.86000000    35.17000000    73.66000000
   H     89.18000000    35.59000000    73.59000000
   N     89.56000000    34.81000000    76.64000000
   C     89.25000000    33.89000000    77.72000000
   C     87.91000000    34.39000000    78.23000000
   O     87.87000000    35.49000000    78.78000000
   C     90.41000000    33.86000000    78.71000000
   C     90.23000000    32.80000000    79.78000000
   N     91.11000000    32.70000000    80.78000000
   O     89.34000000    31.95000000    79.77000000
   H     89.85000000    35.75000000    76.86000000
   H     89.09000000    32.87000000    77.36000000
   H     90.52000000    34.86000000    79.14000000
   H     91.33000000    33.67000000    78.14000000
   H     91.96000000    33.25000000    80.71000000
   H     90.87000000    32.09000000    81.54000000
   N     86.83000000    33.67000000    77.90000000
   C     85.51000000    34.25000000    77.75000000
   C     84.80000000    34.63000000    79.05000000
   O     83.58000000    34.66000000    79.20000000
   H     87.01000000    32.92000000    77.25000000
   H     84.91000000    33.55000000    77.18000000
   H     85.68000000    35.16000000    77.17000000
   N     85.48000000    34.91000000    80.16000000
   C     85.02000000    35.50000000    81.40000000
   C     84.94000000    37.01000000    81.29000000
   O     85.87000000    37.60000000    80.74000000
   C     85.88000000    35.10000000    82.60000000
   C     85.98000000    33.63000000    82.91000000
   C     87.15000000    32.94000000    82.57000000
   C     84.97000000    33.03000000    83.68000000
   C     87.37000000    31.63000000    83.00000000
   C     85.11000000    31.66000000    83.96000000
   C     86.25000000    30.96000000    83.51000000
   O     86.31000000    29.64000000    83.86000000
   H     86.47000000    34.86000000    79.96000000
   H     83.99000000    35.20000000    81.62000000
   H     85.47000000    35.56000000    83.50000000
   H     86.88000000    35.48000000    82.37000000
   H     87.94000000    33.44000000    82.04000000
   H     84.11000000    33.56000000    84.04000000
   H     88.19000000    31.06000000    82.57000000
   H     84.44000000    31.20000000    84.66000000
   H     85.47000000    29.39000000    84.24000000
   N     83.89000000    37.68000000    81.79000000
   C     83.69000000    39.09000000    82.03000000
   C     84.81000000    39.79000000    82.78000000
   O     85.92000000    39.33000000    83.05000000
   C     83.23000000    39.77000000    80.74000000
   C     81.86000000    39.25000000    80.30000000
   C     84.36000000    39.83000000    79.71000000
   C     81.38000000    39.92000000    79.02000000
   H     83.29000000    37.09000000    82.34000000
   H     82.88000000    39.06000000    82.75000000
   H     83.14000000    40.82000000    81.00000000
   H     81.06000000    39.41000000    81.02000000
   H     81.90000000    38.18000000    80.10000000
   H     85.26000000    40.21000000    80.19000000
   H     84.68000000    38.88000000    79.29000000
   H     84.11000000    40.49000000    78.88000000
   H     81.22000000    40.99000000    79.15000000
   H     82.07000000    39.70000000    78.22000000
   H     80.53000000    39.33000000    78.66000000
   N     84.52000000    40.98000000    83.30000000
   C     85.41000000    41.88000000    84.00000000
   C     85.13000000    42.03000000    85.49000000
   O     86.05000000    42.51000000    86.14000000
   C     85.49000000    43.23000000    83.29000000
   O     84.23000000    43.84000000    83.13000000
   H     83.56000000    41.28000000    83.19000000
   H     86.43000000    41.49000000    83.97000000
   H     85.92000000    43.08000000    82.30000000
   H     86.06000000    43.98000000    83.85000000
   H     84.30000000    44.71000000    82.72000000
   N     83.90000000    41.74000000    85.92000000
   C     83.47000000    41.77000000    87.31000000
   C     84.28000000    42.64000000    88.25000000
   O     85.03000000    42.14000000    89.09000000
   C     83.19000000    40.31000000    87.66000000
   H     83.26000000    41.42000000    85.21000000
   H     82.48000000    42.21000000    87.28000000
   H     84.06000000    39.74000000    87.34000000
   H     83.09000000    40.29000000    88.75000000
   H     82.26000000    39.90000000    87.27000000
   N     84.36000000    43.97000000    88.12000000
   C     83.76000000    44.86000000    87.15000000
   C     82.36000000    45.28000000    87.57000000
   O     82.26000000    45.72000000    88.71000000
   C     84.70000000    46.01000000    86.79000000
   H     84.82000000    44.46000000    88.88000000
   H     83.68000000    44.36000000    86.19000000
   H     84.80000000    46.72000000    87.61000000
   H     85.69000000    45.65000000    86.52000000
   H     84.29000000    46.61000000    85.98000000
   N     81.28000000    45.12000000    86.80000000
   C     81.20000000    44.54000000    85.48000000
   C     79.90000000    43.82000000    85.15000000
   O     79.89000000    42.91000000    84.33000000
   C     81.57000000    45.58000000    84.42000000
   C     80.49000000    46.64000000    84.21000000
   C     80.80000000    47.66000000    83.13000000
   O     80.36000000    47.47000000    81.97000000
   O     81.28000000    48.77000000    83.46000000
   H     80.49000000    45.64000000    87.15000000
   H     81.94000000    43.75000000    85.33000000
   H     81.77000000    45.05000000    83.49000000
   H     82.54000000    45.98000000    84.69000000
   H     80.34000000    47.12000000    85.18000000
   H     79.59000000    46.18000000    83.80000000
   N     78.76000000    44.20000000    85.74000000
   C     77.49000000    43.56000000    85.48000000
   H     76.75600000    44.31300000    85.19300000
   H     77.60500000    42.83900000    84.67100000
   H     77.15000000    43.04700000    86.38000000
   H     78.78000000    45.01000000    86.35000000
  Ca     88.05000000    38.06000000    79.19000000
   O     87.44000000    40.45000000    78.23000000
   H     87.86000000    41.29000000    78.39000000
   H     86.73000000    40.64000000    77.62000000

Ca 1.70



