%chk=Ng-293_loop3_6.0.chk
%nprocshared=48
%mem=10GB
%nosave
#b3lyp/svp scf=(tight,noincore) Test 
#IOP(5/87=12) Density=Current Pop=(MK,readradii) iop(6/33=2) iop(6/42=6)

Ng-293_loop3_6.0 

   0   1
   C     43.46000000    81.42000000    66.79000000
   C     43.72000000    81.50000000    65.30000000
   O     44.76000000    82.05000000    64.94000000
   H     42.41300000    81.16900000    66.96300000
   H     44.09400000    80.65000000    67.22900000
   H     43.68300000    82.38200000    67.25100000
   N     42.79000000    81.03000000    64.47000000
   C     42.91000000    80.95000000    63.02000000
   C     42.76000000    79.52000000    62.51000000
   O     42.09000000    78.78000000    63.23000000
   C     41.80000000    81.85000000    62.49000000
   C     42.15000000    82.31000000    61.08000000
   O     43.21000000    81.98000000    60.51000000
   O     41.33000000    83.02000000    60.45000000
   H     41.91000000    80.65000000    64.79000000
   H     43.91000000    81.29000000    62.74000000
   H     41.69000000    82.70000000    63.15000000
   H     40.86000000    81.30000000    62.48000000
   N     43.22000000    79.23000000    61.30000000
   C     42.90000000    78.06000000    60.50000000
   C     41.40000000    77.96000000    60.24000000
   O     40.62000000    78.84000000    60.58000000
   C     43.49000000    76.76000000    61.03000000
   C     44.98000000    76.85000000    61.37000000
   C     45.82000000    77.04000000    60.11000000
   C     47.27000000    77.06000000    60.59000000
   N     47.75000000    78.31000000    61.21000000
   H     43.64000000    80.01000000    60.82000000
   H     43.36000000    78.19000000    59.52000000
   H     43.38000000    76.06000000    60.20000000
   H     43.08000000    76.39000000    61.96000000
   H     45.15000000    75.84000000    61.75000000
   H     45.12000000    77.63000000    62.12000000
   H     45.59000000    77.94000000    59.54000000
   H     45.63000000    76.13000000    59.54000000
   H     47.79000000    76.74000000    59.68000000
   H     47.38000000    76.29000000    61.35000000
   H     47.00000000    78.82000000    61.66000000
   H     48.46000000    78.17000000    61.91000000
   H     48.17000000    78.90000000    60.51000000
   N     40.95000000    77.02000000    59.39000000
   C     39.71000000    76.95000000    58.65000000
   C     38.67000000    76.06000000    59.32000000
   O     38.10000000    76.46000000    60.33000000
   C     39.93000000    76.65000000    57.17000000
   C     40.89000000    75.52000000    56.80000000
   O     42.13000000    75.71000000    56.79000000
   O     40.49000000    74.37000000    56.55000000
   H     41.54000000    76.20000000    59.31000000
   H     39.24000000    77.93000000    58.75000000
   H     40.26000000    77.59000000    56.74000000
   H     38.98000000    76.35000000    56.74000000
   N     38.56000000    74.79000000    58.94000000
   C     37.63000000    73.87000000    59.57000000
   C     36.19000000    73.87000000    59.08000000
   O     35.24000000    74.17000000    59.80000000
   H     39.23000000    74.46000000    58.26000000
   H     37.61000000    73.91000000    60.66000000
   H     37.99000000    72.85000000    59.39000000
   N     36.08000000    73.38000000    57.85000000
   C     34.82000000    73.53000000    57.14000000
   C     33.75000000    72.50000000    57.46000000
   O     33.99000000    71.31000000    57.30000000
   C     35.06000000    73.72000000    55.64000000
   C     33.85000000    74.29000000    54.93000000
   N     33.65000000    75.61000000    54.93000000
   O     33.02000000    73.60000000    54.34000000
   H     36.90000000    73.00000000    57.40000000
   H     34.41000000    74.50000000    57.42000000
   H     35.25000000    72.74000000    55.21000000
   H     35.93000000    74.37000000    55.51000000
   H     34.14000000    76.21000000    55.59000000
   H     32.79000000    75.99000000    54.55000000
   N     32.55000000    72.96000000    57.85000000
   C     31.54000000    72.04000000    58.32000000
   C     31.90000000    71.50000000    59.69000000
   O     32.17000000    72.28000000    60.61000000
   H     32.52000000    73.94000000    58.06000000
   H     31.47000000    71.27000000    57.54000000
   H     30.51000000    72.39000000    58.32000000
   N     31.71000000    70.20000000    59.91000000
   C     31.87000000    69.45000000    61.14000000
   C     33.18000000    69.54000000    61.91000000
   O     33.37000000    68.80000000    62.87000000
   C     30.63000000    69.75000000    61.98000000
   C     29.30000000    69.30000000    61.42000000
   C     28.25000000    70.20000000    61.19000000
   C     29.05000000    67.95000000    61.16000000
   C     27.01000000    69.82000000    60.67000000
   C     27.76000000    67.53000000    60.83000000
   C     26.75000000    68.45000000    60.48000000
   O     25.48000000    68.15000000    60.09000000
   H     31.52000000    69.64000000    59.08000000
   H     31.78000000    68.41000000    60.83000000
   H     30.67000000    70.81000000    62.24000000
   H     30.69000000    69.15000000    62.89000000
   H     28.53000000    71.25000000    61.23000000
   H     29.86000000    67.25000000    61.30000000
   H     26.20000000    70.50000000    60.44000000
   H     27.58000000    66.48000000    60.64000000
   H     25.32000000    67.20000000    60.14000000
   N     34.21000000    70.11000000    61.28000000
   C     35.63000000    70.03000000    61.53000000
   C     36.26000000    68.65000000    61.38000000
   O     37.31000000    68.62000000    60.73000000
   C     35.91000000    70.62000000    62.91000000
   C     35.33000000    71.98000000    63.26000000
   C     37.41000000    70.65000000    63.16000000
   C     35.57000000    72.43000000    64.70000000
   H     33.99000000    70.71000000    60.50000000
   H     36.16000000    70.75000000    60.89000000
   H     35.50000000    69.94000000    63.66000000
   H     34.24000000    71.89000000    63.18000000
   H     35.61000000    72.71000000    62.50000000
   H     38.00000000    71.15000000    62.39000000
   H     37.65000000    71.08000000    64.14000000
   H     37.82000000    69.65000000    63.33000000
   H     34.98000000    73.30000000    64.97000000
   H     35.44000000    71.60000000    65.40000000
   H     36.59000000    72.80000000    64.85000000
   N     35.58000000    67.58000000    61.78000000
   C     35.85000000    66.23000000    61.31000000
   C     37.09000000    65.57000000    61.91000000
   O     37.58000000    64.55000000    61.44000000
   C     34.66000000    65.32000000    61.57000000
   O     33.55000000    66.00000000    61.05000000
   H     34.66000000    67.70000000    62.18000000
   H     35.93000000    66.31000000    60.22000000
   H     34.48000000    65.14000000    62.63000000
   H     34.89000000    64.37000000    61.07000000
   H     32.80000000    65.39000000    61.02000000
   N     37.74000000    66.25000000    62.85000000
   C     38.99000000    65.85000000    63.46000000
   C     40.18000000    65.89000000    62.51000000
   O     41.24000000    65.34000000    62.78000000
   C     38.81000000    64.59000000    64.30000000
   H     37.27000000    67.10000000    63.14000000
   H     39.17000000    66.60000000    64.24000000
   H     38.73000000    63.65000000    63.74000000
   H     39.60000000    64.46000000    65.03000000
   H     37.85000000    64.74000000    64.80000000
   N     40.10000000    66.73000000    61.48000000
   C     41.09000000    66.95000000    60.44000000
   C     41.94000000    68.13000000    60.88000000
   O     41.51000000    68.94000000    61.70000000
   C     40.27000000    67.36000000    59.22000000
   H     39.31000000    67.36000000    61.48000000
   H     41.71000000    66.08000000    60.23000000
   H     40.89000000    67.68000000    58.39000000
   H     39.68000000    66.50000000    58.92000000
   H     39.51000000    68.09000000    59.50000000
   N     43.17000000    68.22000000    60.36000000
   C     44.10000000    69.33000000    60.44000000
   C     44.54000000    69.79000000    61.82000000
   O     45.08000000    70.89000000    61.93000000
   C     43.58000000    70.45000000    59.55000000
   C     43.23000000    70.10000000    58.11000000
   C     42.93000000    71.35000000    57.30000000
   O     43.44000000    72.44000000    57.62000000
   O     42.13000000    71.28000000    56.34000000
   H     43.48000000    67.45000000    59.78000000
   H     45.06000000    68.99000000    60.03000000
   H     44.27000000    71.30000000    59.59000000
   H     42.70000000    70.94000000    59.96000000
   H     42.36000000    69.46000000    58.22000000
   H     44.08000000    69.56000000    57.68000000
   N     44.44000000    68.91000000    62.81000000
   C     44.45000000    69.32000000    64.20000000
   H     44.06900000    70.33800000    64.28100000
   H     43.81800000    68.64900000    64.78200000
   H     45.47000000    69.28300000    64.58300000
   H     44.16000000    67.97000000    62.56000000
  Ca     42.66000000    73.57000000    55.24000000
   O     44.69000000    71.96000000    54.80000000
   H     44.78000000    71.16000000    54.28000000
   H     45.57000000    72.12000000    55.15000000

Ca 1.70



