%chk=Ng-295_loop3_37.0.chk
%nprocshared=48
%mem=10GB
%nosave
#b3lyp/svp scf=(tight,noincore) Test 
#IOP(5/87=12) Density=Current Pop=(MK,readradii) iop(6/33=2) iop(6/42=6)

Ng-295_loop3_37.0 

   0   1
   C      8.55800000    73.16200000    67.75000000
   C      7.82800000    72.00200000    67.10000000
   O      6.59800000    71.95200000    67.20000000
   H      9.48400000    73.35600000    67.20900000
   H      7.92800000    74.05100000    67.72100000
   H      8.78800000    72.91300000    68.78600000
   N      8.59800000    71.19200000    66.38000000
   C      7.98800000    70.19200000    65.51000000
   C      7.96800000    68.87200000    66.26000000
   O      8.98800000    68.52200000    66.85000000
   C      8.87800000    70.05200000    64.29000000
   C      8.04800000    69.24200000    63.30000000
   O      7.16800000    69.83200000    62.65000000
   O      8.24800000    68.02200000    63.14000000
   H      9.58800000    71.37200000    66.37000000
   H      6.96800000    70.47200000    65.23000000
   H      9.85800000    69.58200000    64.41000000
   H      9.08800000    71.01200000    63.81000000
   N      6.83800000    68.16200000    66.24000000
   C      6.66800000    67.01200000    67.11000000
   C      6.57800000    65.62200000    66.49000000
   O      6.71800000    64.60200000    67.16000000
   C      5.42800000    67.25200000    67.97000000
   C      5.66800000    68.35200000    69.00000000
   C      4.67800000    69.51200000    68.96000000
   C      4.93800000    70.77200000    69.78000000
   N      5.36800000    70.42200000    71.14000000
   H      6.07800000    68.55200000    65.70000000
   H      7.53800000    67.00200000    67.77000000
   H      5.11800000    66.36200000    68.51000000
   H      4.67800000    67.50200000    67.22000000
   H      6.71800000    68.60200000    68.91000000
   H      5.63800000    67.83200000    69.96000000
   H      3.72800000    69.17200000    69.37000000
   H      4.41800000    69.84200000    67.96000000
   H      4.00800000    71.32200000    69.93000000
   H      5.68800000    71.38200000    69.29000000
   H      4.68800000    69.84200000    71.62000000
   H      6.22800000    69.88200000    71.16000000
   H      5.53800000    71.23200000    71.72000000
   N      6.30800000    65.57200000    65.19000000
   C      5.93800000    64.37200000    64.46000000
   C      7.13800000    63.59200000    63.93000000
   O      7.05800000    62.48200000    63.43000000
   C      4.96800000    64.68200000    63.32000000
   C      5.52800000    65.83200000    62.51000000
   O      6.41800000    65.58200000    61.66000000
   O      5.15800000    67.00200000    62.75000000
   H      6.03800000    66.41200000    64.71000000
   H      5.28800000    63.77200000    65.10000000
   H      4.03800000    65.06200000    63.74000000
   H      4.72800000    63.88200000    62.61000000
   N      8.29800000    64.22200000    64.15000000
   C      9.58800000    63.68200000    63.76000000
   C      9.99800000    63.66200000    62.29000000
   O     11.15800000    63.37200000    62.04000000
   H      8.28800000    65.11200000    64.62000000
   H      9.69800000    62.64200000    64.07000000
   H     10.35800000    64.25200000    64.28000000
   N      9.13800000    64.02200000    61.34000000
   C      9.38800000    63.95200000    59.91000000
   C      9.31800000    65.29200000    59.19000000
   O      8.69800000    66.22200000    59.73000000
   C      8.27800000    63.01200000    59.46000000
   C      8.33800000    62.62200000    57.99000000
   N      8.85800000    61.47200000    57.56000000
   O      8.02800000    63.40200000    57.09000000
   H      8.16800000    64.16200000    61.58000000
   H     10.37800000    63.55200000    59.69000000
   H      7.35800000    63.60200000    59.46000000
   H      8.21800000    62.10200000    60.05000000
   H      9.26800000    60.77200000    58.16000000
   H      8.68800000    61.22200000    56.60000000
   N      9.90800000    65.41200000    58.01000000
   C      9.94800000    66.61200000    57.19000000
   C      9.67800000    66.37200000    55.70000000
   O      9.97800000    67.34200000    55.01000000
   H     10.40800000    64.60200000    57.67000000
   H     10.90800000    67.08200000    57.36000000
   H      9.19800000    67.31200000    57.54000000
   N      9.22800000    65.21200000    55.24000000
   C      9.15800000    64.89200000    53.82000000
   C      7.86800000    65.33200000    53.16000000
   O      6.80800000    64.98200000    53.69000000
   C      9.41800000    63.39200000    53.69000000
   C      9.68800000    62.87200000    52.30000000
   C      8.61800000    62.58200000    51.44000000
   C     11.02800000    62.65200000    51.96000000
   C      8.83800000    62.16200000    50.13000000
   C     11.24800000    62.18200000    50.66000000
   C     10.18800000    61.90200000    49.78000000
   O     10.56800000    61.33200000    48.60000000
   H      9.04800000    64.49200000    55.92000000
   H      9.98800000    65.43200000    53.38000000
   H      8.58800000    62.84200000    54.15000000
   H     10.32800000    63.23200000    54.27000000
   H      7.65800000    62.83200000    51.88000000
   H     11.83800000    62.92200000    52.62000000
   H      8.09800000    61.85200000    49.41000000
   H     12.25800000    62.04200000    50.30000000
   H     11.52800000    61.24200000    48.66000000
   N      7.91800000    66.13200000    52.09000000
   C      6.83800000    66.64200000    51.26000000
   C      6.16800000    65.63200000    50.35000000
   O      6.02800000    64.48200000    50.77000000
   C      5.90800000    67.61200000    51.98000000
   C      6.68800000    68.53200000    52.91000000
   C      4.71800000    66.93200000    52.64000000
   C      7.85800000    69.32200000    52.33000000
   H      8.83800000    66.46200000    51.83000000
   H      7.31800000    67.29200000    50.53000000
   H      5.45800000    68.32200000    51.28000000
   H      7.06800000    68.05200000    53.81000000
   H      5.91800000    69.18200000    53.34000000
   H      4.95800000    66.76200000    53.69000000
   H      3.84800000    67.58200000    52.65000000
   H      4.42800000    65.99200000    52.16000000
   H      8.70800000    68.70200000    52.07000000
   H      7.50800000    70.03200000    51.58000000
   H      8.24800000    70.03200000    53.06000000
   N      5.62800000    65.97200000    49.17000000
   C      4.72800000    65.11200000    48.42000000
   C      4.80800000    65.40200000    46.92000000
   O      3.98800000    64.85200000    46.18000000
   C      3.30800000    65.08200000    48.98000000
   O      2.78800000    66.26200000    49.55000000
   H      5.73800000    66.93200000    48.91000000
   H      5.13800000    64.12200000    48.56000000
   H      3.30800000    64.37200000    49.80000000
   H      2.56800000    64.66200000    48.29000000
   H      1.87800000    66.07200000    49.81000000
   N      5.66800000    66.30200000    46.43000000
   C      5.90800000    66.69200000    45.06000000
   C      4.55800000    66.97200000    44.40000000
   O      4.39800000    66.45200000    43.30000000
   C      6.85800000    65.67200000    44.45000000
   H      6.23800000    66.72200000    47.14000000
   H      6.41800000    67.65200000    45.10000000
   H      7.02800000    65.90200000    43.40000000
   H      7.77800000    65.75200000    45.02000000
   H      6.47800000    64.65200000    44.49000000
   N      3.58800000    67.73200000    44.90000000
   C      3.53800000    68.50200000    46.13000000
   C      3.24800000    69.97200000    45.85000000
   O      2.53800000    70.23200000    44.88000000
   C      2.42800000    67.83200000    46.93000000
   H      2.82800000    67.90200000    44.25000000
   H      4.50800000    68.43200000    46.62000000
   H      1.42800000    68.20200000    46.71000000
   H      2.50800000    66.75200000    46.78000000
   H      2.70800000    68.05200000    47.96000000
   N      3.45800000    70.94200000    46.74000000
   C      4.27800000    70.77200000    47.92000000
   C      5.62800000    71.45200000    47.78000000
   O      6.49800000    71.28200000    48.64000000
   C      3.53800000    71.37200000    49.12000000
   C      2.49800000    70.39200000    49.67000000
   C      1.91800000    70.81200000    51.01000000
   O      1.80800000    72.05200000    51.15000000
   O      1.68800000    69.96200000    51.90000000
   H      3.26800000    71.86200000    46.35000000
   H      4.48800000    69.72200000    48.12000000
   H      3.01800000    72.22200000    48.69000000
   H      4.19800000    71.78200000    49.88000000
   H      2.90800000    69.39200000    49.83000000
   H      1.73800000    70.20200000    48.91000000
   N      5.82800000    72.34200000    46.81000000
   C      7.07800000    73.03200000    46.62000000
   H      7.84400000    72.31800000    46.31600000
   H      6.96100000    73.79000000    45.84600000
   H      7.37600000    73.50800000    47.55400000
   H      5.12800000    72.57200000    46.12000000
  Ca      6.96000000    67.93000000    60.80000000
   O      9.11000000    69.35000000    60.13000000
   H      9.22000000    70.28000000    60.29000000
   H      9.65000000    69.17000000    59.36000000

Ca 1.70



