%chk=Ng-293_loop3_69.0.chk
%nprocshared=48
%mem=10GB
%nosave
#b3lyp/svp scf=(tight,noincore) Test 
#IOP(5/87=12) Density=Current Pop=(MK,readradii) iop(6/33=2) iop(6/42=6)

Ng-293_loop3_69.0 

   0   1
   C     41.41000000    79.02000000    69.49000000
   C     41.97000000    78.71000000    68.10000000
   O     43.10000000    79.04000000    67.76000000
   H     40.38900000    78.64600000    69.56100000
   H     42.02700000    78.53600000    70.24700000
   H     41.41400000    80.09800000    69.65200000
   N     41.10000000    78.14000000    67.26000000
   C     41.41000000    77.66000000    65.93000000
   C     40.79000000    76.35000000    65.47000000
   O     40.13000000    75.72000000    66.30000000
   C     40.83000000    78.76000000    65.05000000
   C     41.20000000    78.57000000    63.58000000
   O     42.27000000    78.06000000    63.19000000
   O     40.33000000    78.84000000    62.73000000
   H     40.19000000    77.87000000    67.60000000
   H     42.48000000    77.49000000    65.82000000
   H     41.24000000    79.74000000    65.30000000
   H     39.74000000    78.79000000    65.10000000
   N     41.23000000    75.71000000    64.38000000
   C     40.86000000    74.43000000    63.80000000
   C     39.37000000    74.29000000    63.49000000
   O     38.52000000    75.07000000    63.90000000
   C     41.43000000    73.30000000    64.64000000
   C     42.95000000    73.21000000    64.62000000
   C     43.53000000    72.93000000    63.24000000
   C     45.01000000    72.62000000    63.37000000
   N     45.86000000    73.75000000    63.79000000
   H     41.80000000    76.28000000    63.78000000
   H     41.31000000    74.35000000    62.82000000
   H     41.00000000    72.36000000    64.28000000
   H     41.08000000    73.47000000    65.66000000
   H     43.33000000    72.51000000    65.37000000
   H     43.27000000    74.19000000    64.99000000
   H     43.53000000    73.85000000    62.66000000
   H     42.95000000    72.10000000    62.82000000
   H     45.39000000    72.21000000    62.43000000
   H     45.19000000    71.79000000    64.05000000
   H     45.76000000    74.51000000    63.13000000
   H     45.55000000    74.21000000    64.64000000
   H     46.83000000    73.48000000    63.83000000
   N     38.97000000    73.33000000    62.66000000
   C     37.63000000    73.09000000    62.14000000
   C     36.70000000    72.44000000    63.16000000
   O     36.14000000    71.37000000    62.91000000
   C     37.68000000    72.50000000    60.73000000
   C     38.51000000    71.24000000    60.59000000
   O     39.07000000    70.71000000    61.58000000
   O     38.80000000    70.76000000    59.47000000
   H     39.65000000    72.77000000    62.18000000
   H     37.20000000    74.08000000    62.00000000
   H     38.13000000    73.20000000    60.03000000
   H     36.64000000    72.41000000    60.44000000
   N     36.63000000    72.99000000    64.37000000
   C     35.85000000    72.48000000    65.48000000
   C     34.36000000    72.67000000    65.29000000
   O     33.81000000    73.52000000    65.98000000
   H     37.14000000    73.84000000    64.54000000
   H     36.13000000    72.97000000    66.42000000
   H     36.04000000    71.41000000    65.56000000
   N     33.72000000    71.80000000    64.49000000
   C     32.32000000    71.87000000    64.12000000
   C     31.66000000    70.50000000    64.10000000
   O     32.35000000    69.52000000    63.83000000
   C     32.15000000    72.57000000    62.77000000
   C     32.21000000    74.09000000    62.74000000
   N     31.28000000    74.87000000    63.30000000
   O     33.23000000    74.63000000    62.33000000
   H     34.23000000    70.98000000    64.20000000
   H     31.75000000    72.42000000    64.87000000
   H     31.15000000    72.48000000    62.34000000
   H     32.82000000    72.16000000    62.01000000
   H     30.47000000    74.42000000    63.70000000
   H     31.53000000    75.82000000    63.50000000
   N     30.34000000    70.45000000    64.28000000
   C     29.52000000    69.25000000    64.36000000
   C     29.85000000    68.30000000    65.50000000
   O     30.29000000    68.75000000    66.55000000
   H     29.80000000    71.29000000    64.42000000
   H     29.43000000    68.62000000    63.48000000
   H     28.50000000    69.57000000    64.56000000
   N     29.54000000    67.00000000    65.37000000
   C     29.61000000    65.98000000    66.40000000
   C     31.02000000    65.57000000    66.79000000
   O     31.25000000    64.89000000    67.79000000
   C     28.68000000    66.35000000    67.56000000
   C     27.90000000    65.20000000    68.14000000
   C     28.09000000    64.87000000    69.49000000
   C     26.93000000    64.53000000    67.38000000
   C     27.22000000    63.93000000    70.05000000
   C     26.16000000    63.49000000    67.92000000
   C     26.24000000    63.26000000    69.31000000
   O     25.53000000    62.25000000    69.90000000
   H     29.12000000    66.67000000    64.52000000
   H     29.19000000    65.10000000    65.91000000
   H     27.97000000    67.12000000    67.26000000
   H     29.38000000    66.82000000    68.24000000
   H     28.80000000    65.39000000    70.12000000
   H     26.83000000    64.83000000    66.34000000
   H     27.36000000    63.69000000    71.09000000
   H     25.40000000    62.99000000    67.35000000
   H     25.05000000    61.70000000    69.28000000
   N     32.06000000    66.04000000    66.10000000
   C     33.48000000    65.86000000    66.34000000
   C     34.07000000    64.47000000    66.22000000
   O     35.21000000    64.37000000    65.76000000
   C     33.96000000    66.50000000    67.63000000
   C     33.65000000    68.00000000    67.64000000
   C     35.44000000    66.34000000    67.97000000
   C     34.51000000    68.97000000    66.84000000
   H     31.87000000    66.61000000    65.29000000
   H     33.90000000    66.30000000    65.43000000
   H     33.43000000    65.91000000    68.38000000
   H     33.61000000    68.32000000    68.68000000
   H     32.58000000    68.15000000    67.50000000
   H     35.68000000    65.34000000    68.34000000
   H     35.91000000    66.59000000    67.02000000
   H     35.79000000    66.98000000    68.78000000
   H     34.63000000    68.61000000    65.82000000
   H     34.09000000    69.97000000    66.81000000
   H     35.50000000    69.06000000    67.30000000
   N     33.38000000    63.37000000    66.55000000
   C     33.84000000    62.02000000    66.32000000
   C     35.27000000    61.73000000    66.75000000
   O     36.03000000    61.12000000    66.00000000
   C     32.98000000    61.01000000    67.09000000
   O     32.65000000    61.38000000    68.41000000
   H     32.46000000    63.57000000    66.92000000
   H     33.64000000    61.78000000    65.27000000
   H     33.49000000    60.05000000    67.07000000
   H     32.13000000    60.93000000    66.41000000
   H     31.71000000    61.23000000    68.47000000
   N     35.65000000    62.20000000    67.94000000
   C     36.99000000    62.19000000    68.48000000
   C     38.14000000    62.53000000    67.54000000
   O     39.00000000    61.71000000    67.22000000
   C     37.06000000    60.94000000    69.35000000
   H     34.91000000    62.40000000    68.60000000
   H     36.92000000    63.05000000    69.13000000
   H     37.97000000    60.84000000    69.95000000
   H     36.23000000    60.89000000    70.04000000
   H     37.04000000    60.11000000    68.64000000
   N     38.15000000    63.72000000    66.94000000
   C     39.15000000    64.12000000    65.96000000
   C     40.12000000    65.19000000    66.43000000
   O     39.72000000    66.23000000    66.95000000
   C     38.52000000    64.51000000    64.63000000
   H     37.48000000    64.43000000    67.21000000
   H     39.78000000    63.25000000    65.79000000
   H     37.75000000    65.24000000    64.90000000
   H     39.32000000    64.99000000    64.08000000
   H     38.08000000    63.70000000    64.04000000
   N     41.39000000    65.05000000    66.05000000
   C     42.51000000    65.97000000    66.10000000
   C     42.80000000    66.53000000    67.48000000
   O     43.39000000    67.61000000    67.51000000
   C     42.31000000    67.08000000    65.07000000
   C     42.04000000    66.55000000    63.67000000
   C     42.15000000    67.56000000    62.53000000
   O     43.16000000    67.70000000    61.81000000
   O     41.17000000    68.32000000    62.36000000
   H     41.64000000    64.18000000    65.59000000
   H     43.37000000    65.37000000    65.81000000
   H     43.14000000    67.78000000    65.12000000
   H     41.43000000    67.70000000    65.26000000
   H     41.04000000    66.11000000    63.67000000
   H     42.76000000    65.75000000    63.54000000
   N     42.45000000    65.84000000    68.57000000
   C     42.35000000    66.53000000    69.85000000
   H     41.30100000    66.72200000    70.07800000
   H     42.78300000    65.90800000    70.63300000
   H     42.88900000    67.47600000    69.79700000
   H     42.07000000    64.91000000    68.47000000
  Ca     39.99000000    68.64000000    60.06000000
   O     39.24000000    66.87000000    58.23000000
   H     38.61000000    66.15000000    58.19000000
   H     39.90000000    66.64000000    57.58000000

Ca 1.70



