%chk=Ng-293_loop3_44.0.chk
%nprocshared=48
%mem=10GB
%nosave
#b3lyp/svp scf=(tight,noincore) Test 
#IOP(5/87=12) Density=Current Pop=(MK,readradii) iop(6/33=2) iop(6/42=6)

Ng-293_loop3_44.0 

   0   1
   C     53.34000000    26.40000000    11.83000000
   C     53.07000000    27.39000000    10.70000000
   O     52.28000000    27.06000000     9.82000000
   H     54.15900000    26.76900000    12.44800000
   H     52.44400000    26.29300000    12.44200000
   H     53.61100000    25.43200000    11.40900000
   N     53.74000000    28.54000000    10.65000000
   C     53.49000000    29.62000000     9.71000000
   C     52.48000000    30.60000000    10.30000000
   O     52.24000000    30.69000000    11.50000000
   C     54.79000000    30.25000000     9.24000000
   C     55.76000000    30.61000000    10.36000000
   O     56.95000000    30.86000000    10.06000000
   O     55.26000000    30.81000000    11.49000000
   H     54.40000000    28.79000000    11.37000000
   H     53.03000000    29.26000000     8.79000000
   H     54.60000000    31.15000000     8.65000000
   H     55.17000000    29.60000000     8.46000000
   N     51.96000000    31.48000000     9.44000000
   C     50.88000000    32.43000000     9.63000000
   C     51.17000000    33.57000000    10.59000000
   O     51.03000000    34.68000000    10.07000000
   C     49.55000000    31.75000000     9.92000000
   C     49.04000000    30.85000000     8.79000000
   C     47.73000000    30.09000000     8.86000000
   C     46.61000000    31.07000000     9.22000000
   N     45.31000000    30.38000000     9.28000000
   H     52.24000000    31.39000000     8.47000000
   H     50.80000000    32.94000000     8.67000000
   H     48.76000000    32.43000000    10.23000000
   H     49.71000000    31.16000000    10.82000000
   H     49.80000000    30.07000000     8.75000000
   H     49.00000000    31.38000000     7.84000000
   H     47.91000000    29.18000000     9.44000000
   H     47.51000000    29.82000000     7.83000000
   H     46.74000000    31.77000000     8.40000000
   H     46.83000000    31.58000000    10.16000000
   H     45.23000000    29.82000000    10.11000000
   H     44.54000000    31.03000000     9.28000000
   H     45.05000000    29.86000000     8.45000000
   N     51.58000000    33.34000000    11.84000000
   C     51.65000000    34.33000000    12.89000000
   C     52.61000000    33.94000000    14.00000000
   O     52.64000000    32.79000000    14.44000000
   C     50.23000000    34.57000000    13.39000000
   C     50.23000000    35.62000000    14.50000000
   O     50.51000000    36.83000000    14.35000000
   O     49.86000000    35.15000000    15.60000000
   H     51.59000000    32.36000000    12.11000000
   H     52.03000000    35.25000000    12.44000000
   H     49.96000000    33.63000000    13.86000000
   H     49.56000000    34.84000000    12.58000000
   N     53.43000000    34.86000000    14.52000000
   C     54.22000000    34.52000000    15.69000000
   C     53.53000000    34.51000000    17.04000000
   O     52.32000000    34.67000000    17.15000000
   H     53.40000000    35.80000000    14.16000000
   H     55.02000000    35.27000000    15.74000000
   H     54.68000000    33.56000000    15.43000000
   N     54.29000000    34.29000000    18.12000000
   C     53.88000000    34.14000000    19.50000000
   C     54.66000000    34.86000000    20.59000000
   O     54.19000000    34.86000000    21.73000000
   C     53.89000000    32.62000000    19.64000000
   C     52.80000000    31.83000000    18.93000000
   N     53.26000000    31.01000000    17.98000000
   O     51.61000000    32.09000000    19.03000000
   H     55.27000000    34.33000000    17.88000000
   H     52.92000000    34.60000000    19.78000000
   H     53.87000000    32.47000000    20.72000000
   H     54.90000000    32.33000000    19.37000000
   H     54.21000000    30.68000000    17.87000000
   H     52.57000000    30.47000000    17.49000000
   N     55.68000000    35.64000000    20.25000000
   C     56.21000000    36.64000000    21.15000000
   C     57.06000000    36.15000000    22.32000000
   O     57.61000000    35.05000000    22.34000000
   H     55.74000000    35.93000000    19.28000000
   H     55.48000000    37.36000000    21.52000000
   H     56.98000000    37.24000000    20.67000000
   N     56.79000000    36.75000000    23.48000000
   C     57.05000000    36.24000000    24.82000000
   C     56.49000000    34.87000000    25.15000000
   O     56.76000000    34.31000000    26.22000000
   C     58.50000000    36.34000000    25.28000000
   C     59.12000000    37.67000000    24.95000000
   C     58.89000000    38.77000000    25.79000000
   C     59.83000000    37.89000000    23.76000000
   C     59.39000000    40.03000000    25.46000000
   C     60.34000000    39.14000000    23.38000000
   C     60.06000000    40.22000000    24.23000000
   O     60.48000000    41.48000000    23.90000000
   H     56.38000000    37.67000000    23.43000000
   H     56.41000000    36.89000000    25.42000000
   H     59.06000000    35.57000000    24.75000000
   H     58.64000000    36.20000000    26.35000000
   H     58.29000000    38.68000000    26.69000000
   H     60.03000000    37.06000000    23.10000000
   H     59.38000000    40.85000000    26.16000000
   H     60.89000000    39.26000000    22.46000000
   H     61.18000000    41.37000000    23.25000000
   N     55.59000000    34.35000000    24.32000000
   C     54.79000000    33.15000000    24.40000000
   C     53.73000000    33.15000000    25.50000000
   O     52.57000000    32.83000000    25.29000000
   C     55.67000000    31.90000000    24.45000000
   C     56.45000000    31.85000000    23.14000000
   C     54.92000000    30.61000000    24.76000000
   C     57.72000000    31.00000000    23.20000000
   H     55.34000000    34.91000000    23.51000000
   H     54.23000000    33.15000000    23.47000000
   H     56.40000000    32.10000000    25.23000000
   H     56.87000000    32.84000000    22.95000000
   H     55.71000000    31.69000000    22.36000000
   H     55.59000000    29.76000000    24.93000000
   H     54.38000000    30.73000000    25.70000000
   H     54.10000000    30.33000000    24.10000000
   H     57.59000000    29.94000000    23.39000000
   H     58.22000000    31.13000000    22.24000000
   H     58.51000000    31.39000000    23.84000000
   N     54.04000000    33.54000000    26.74000000
   C     53.06000000    33.94000000    27.73000000
   C     52.28000000    32.85000000    28.45000000
   O     51.30000000    33.06000000    29.16000000
   C     53.85000000    34.63000000    28.83000000
   O     54.17000000    35.86000000    28.22000000
   H     54.95000000    33.84000000    27.05000000
   H     52.41000000    34.68000000    27.25000000
   H     54.67000000    34.00000000    29.18000000
   H     53.16000000    34.84000000    29.65000000
   H     54.64000000    36.37000000    28.89000000
   N     52.68000000    31.59000000    28.27000000
   C     51.84000000    30.43000000    28.48000000
   C     50.50000000    30.53000000    27.78000000
   O     49.53000000    29.89000000    28.18000000
   C     51.68000000    30.05000000    29.95000000
   H     53.54000000    31.49000000    27.75000000
   H     52.32000000    29.60000000    27.96000000
   H     51.07000000    30.77000000    30.50000000
   H     51.13000000    29.11000000    30.06000000
   H     52.68000000    29.83000000    30.34000000
   N     50.38000000    31.31000000    26.70000000
   C     49.22000000    31.63000000    25.88000000
   C     48.99000000    30.76000000    24.66000000
   O     49.96000000    30.26000000    24.10000000
   C     49.26000000    33.11000000    25.49000000
   H     51.19000000    31.86000000    26.48000000
   H     48.32000000    31.56000000    26.50000000
   H     49.39000000    33.77000000    26.35000000
   H     50.01000000    33.26000000    24.72000000
   H     48.31000000    33.35000000    25.01000000
   N     47.75000000    30.55000000    24.19000000
   C     47.27000000    29.77000000    23.07000000
   C     47.45000000    28.27000000    23.22000000
   O     47.55000000    27.61000000    22.18000000
   C     47.66000000    30.40000000    21.73000000
   C     47.27000000    31.86000000    21.53000000
   C     47.81000000    32.26000000    20.16000000
   O     48.80000000    33.01000000    20.01000000
   O     47.32000000    31.76000000    19.13000000
   H     47.09000000    31.18000000    24.62000000
   H     46.19000000    29.93000000    23.15000000
   H     47.07000000    29.79000000    21.05000000
   H     48.72000000    30.28000000    21.51000000
   H     47.65000000    32.51000000    22.31000000
   H     46.19000000    31.94000000    21.41000000
   N     47.51000000    27.67000000    24.41000000
   C     48.01000000    26.32000000    24.55000000
   H     48.96400000    26.33900000    25.07800000
   H     47.29400000    25.72400000    25.11600000
   H     48.15000000    25.88000000    23.56300000
   H     47.24000000    28.20000000    25.23000000
  Ca     49.92000000    34.11000000    18.01000000
   O     50.58000000    35.81000000    19.78000000
   H     51.32000000    36.34000000    20.07000000
   H     50.00000000    35.77000000    20.54000000

Ca 1.70



