%chk=Ng-295_loop3_34.0.chk
%nprocshared=48
%mem=10GB
%nosave
#b3lyp/svp scf=(tight,noincore) Test 
#IOP(5/87=12) Density=Current Pop=(MK,readradii) iop(6/33=2) iop(6/42=6)

Ng-295_loop3_34.0 

   0   1
   C      6.79000000    73.82000000    85.03000000
   C      5.44000000    73.31000000    84.56000000
   O      4.50000000    74.06000000    84.28000000
   H      7.49700000    73.79300000    84.20100000
   H      6.68800000    74.84500000    85.38600000
   H      7.15600000    73.18800000    85.83900000
   N      5.19000000    72.00000000    84.49000000
   C      4.07000000    71.31000000    83.88000000
   C      2.95000000    71.28000000    84.90000000
   O      3.17000000    71.07000000    86.09000000
   C      4.40000000    69.90000000    83.39000000
   C      3.31000000    69.32000000    82.50000000
   O      3.53000000    69.28000000    81.27000000
   O      2.24000000    68.96000000    83.04000000
   H      5.87000000    71.41000000    84.95000000
   H      3.73000000    71.87000000    83.01000000
   H      4.47000000    69.34000000    84.32000000
   H      5.30000000    70.13000000    82.81000000
   N      1.71000000    71.52000000    84.46000000
   C      0.53000000    71.54000000    85.30000000
   C      0.10000000    70.28000000    86.05000000
   O     -0.67000000    70.32000000    87.01000000
   C     -0.61000000    71.85000000    84.33000000
   C     -0.59000000    73.28000000    83.81000000
   C     -0.88000000    74.41000000    84.80000000
   C     -0.89000000    75.79000000    84.14000000
   N     -1.05000000    76.79000000    85.21000000
   H      1.39000000    71.71000000    83.52000000
   H      0.63000000    72.34000000    86.03000000
   H     -1.56000000    71.57000000    84.80000000
   H     -0.61000000    71.20000000    83.46000000
   H     -1.41000000    73.27000000    83.09000000
   H      0.41000000    73.51000000    83.46000000
   H     -0.21000000    74.32000000    85.65000000
   H     -1.92000000    74.22000000    85.09000000
   H     -1.65000000    75.90000000    83.37000000
   H      0.08000000    75.99000000    83.67000000
   H     -0.43000000    76.58000000    85.97000000
   H     -0.79000000    77.70000000    84.88000000
   H     -1.98000000    76.78000000    85.62000000
   N      0.52000000    69.12000000    85.54000000
   C      0.15000000    67.78000000    85.93000000
   C      1.30000000    66.78000000    85.97000000
   O      1.12000000    65.79000000    86.68000000
   C     -0.92000000    67.26000000    84.98000000
   C     -0.53000000    67.42000000    83.51000000
   O     -0.88000000    68.35000000    82.76000000
   O      0.30000000    66.59000000    83.08000000
   H      1.11000000    69.23000000    84.72000000
   H     -0.40000000    67.81000000    86.87000000
   H     -1.90000000    67.68000000    85.24000000
   H     -1.19000000    66.23000000    85.18000000
   N      2.40000000    67.00000000    85.25000000
   C      3.55000000    66.12000000    85.21000000
   C      3.31000000    64.87000000    84.38000000
   O      4.29000000    64.12000000    84.40000000
   H      2.45000000    67.87000000    84.73000000
   H      3.70000000    65.77000000    86.24000000
   H      4.45000000    66.67000000    84.90000000
   N      2.18000000    64.57000000    83.75000000
   C      1.76000000    63.25000000    83.33000000
   C      2.46000000    62.81000000    82.05000000
   O      2.61000000    63.51000000    81.05000000
   C      0.24000000    63.30000000    83.24000000
   C     -0.32000000    61.91000000    83.01000000
   N     -1.03000000    61.65000000    81.91000000
   O     -0.24000000    61.00000000    83.83000000
   H      1.53000000    65.34000000    83.64000000
   H      1.97000000    62.55000000    84.15000000
   H     -0.04000000    63.92000000    82.38000000
   H     -0.19000000    63.75000000    84.14000000
   H     -1.11000000    62.37000000    81.21000000
   H     -1.47000000    60.74000000    81.87000000
   N      2.88000000    61.55000000    82.00000000
   C      3.77000000    60.95000000    81.02000000
   C      3.11000000    60.39000000    79.77000000
   O      3.85000000    60.28000000    78.80000000
   H      2.85000000    61.01000000    82.85000000
   H      4.38000000    60.19000000    81.49000000
   H      4.51000000    61.61000000    80.57000000
   N      1.80000000    60.10000000    79.74000000
   C      1.18000000    59.42000000    78.62000000
   C      0.19000000    60.21000000    77.78000000
   O     -0.47000000    61.14000000    78.24000000
   C      0.36000000    58.25000000    79.16000000
   C     -0.39000000    57.37000000    78.18000000
   C     -1.71000000    57.61000000    77.79000000
   C      0.23000000    56.21000000    77.70000000
   C     -2.46000000    56.67000000    77.07000000
   C     -0.51000000    55.27000000    76.96000000
   C     -1.88000000    55.44000000    76.69000000
   O     -2.59000000    54.45000000    76.06000000
   H      1.26000000    60.44000000    80.52000000
   H      1.99000000    59.07000000    77.98000000
   H     -0.37000000    58.66000000    79.85000000
   H      1.04000000    57.66000000    79.76000000
   H     -2.25000000    58.46000000    78.17000000
   H      1.24000000    56.01000000    78.02000000
   H     -3.50000000    56.88000000    76.89000000
   H     -0.14000000    54.27000000    76.79000000
   H     -1.99000000    53.85000000    75.60000000
   N      0.30000000    60.01000000    76.46000000
   C     -0.33000000    60.75000000    75.38000000
   C     -1.83000000    60.57000000    75.27000000
   O     -2.53000000    60.47000000    76.28000000
   C      0.06000000    62.22000000    75.26000000
   C     -0.96000000    63.30000000    75.62000000
   C      0.45000000    62.55000000    73.82000000
   C     -0.35000000    64.69000000    75.77000000
   H      0.65000000    59.10000000    76.19000000
   H      0.16000000    60.23000000    74.56000000
   H      0.94000000    62.43000000    75.86000000
   H     -1.36000000    63.17000000    76.63000000
   H     -1.74000000    63.30000000    74.86000000
   H      0.96000000    63.50000000    73.73000000
   H      1.15000000    61.76000000    73.53000000
   H     -0.46000000    62.63000000    73.22000000
   H      0.05000000    65.00000000    74.80000000
   H     -1.07000000    65.38000000    76.21000000
   H      0.47000000    64.56000000    76.48000000
   N     -2.41000000    60.58000000    74.07000000
   C     -3.83000000    60.68000000    73.81000000
   C     -4.30000000    60.18000000    72.46000000
   O     -5.50000000    60.19000000    72.17000000
   C     -4.20000000    62.16000000    73.84000000
   O     -3.43000000    62.94000000    72.95000000
   H     -1.84000000    60.81000000    73.27000000
   H     -4.38000000    60.13000000    74.58000000
   H     -4.23000000    62.55000000    74.86000000
   H     -5.21000000    62.23000000    73.46000000
   H     -3.63000000    63.87000000    73.03000000
   N     -3.39000000    59.76000000    71.58000000
   C     -3.57000000    59.35000000    70.20000000
   C     -4.79000000    59.91000000    69.50000000
   O     -5.71000000    59.14000000    69.21000000
   C     -3.48000000    57.83000000    70.31000000
   H     -2.51000000    59.46000000    71.98000000
   H     -2.80000000    59.71000000    69.52000000
   H     -2.48000000    57.50000000    70.60000000
   H     -4.19000000    57.56000000    71.09000000
   H     -3.75000000    57.31000000    69.39000000
   N     -4.86000000    61.20000000    69.15000000
   C     -3.98000000    62.30000000    69.46000000
   C     -3.14000000    62.73000000    68.26000000
   O     -3.57000000    62.56000000    67.12000000
   C     -4.80000000    63.46000000    70.01000000
   H     -5.64000000    61.47000000    68.56000000
   H     -3.24000000    62.01000000    70.20000000
   H     -5.33000000    64.02000000    69.24000000
   H     -5.44000000    63.00000000    70.77000000
   H     -4.04000000    64.11000000    70.44000000
   N     -2.00000000    63.40000000    68.43000000
   C     -1.22000000    63.56000000    69.63000000
   C      0.04000000    62.71000000    69.50000000
   O      0.80000000    62.50000000    70.43000000
   C     -0.84000000    65.04000000    69.69000000
   C     -0.50000000    65.53000000    71.10000000
   C     -0.41000000    67.04000000    71.27000000
   O      0.68000000    67.63000000    71.09000000
   O     -1.41000000    67.71000000    71.63000000
   H     -1.55000000    63.78000000    67.61000000
   H     -1.82000000    63.29000000    70.50000000
   H     -1.75000000    65.60000000    69.47000000
   H     -0.09000000    65.32000000    68.95000000
   H      0.46000000    65.20000000    71.48000000
   H     -1.16000000    65.11000000    71.86000000
   N      0.34000000    62.14000000    68.33000000
   C      1.64000000    61.59000000    68.00000000
   H      2.37200000    61.92300000    68.73600000
   H      1.58700000    60.50100000    68.00700000
   H      1.94000000    61.93300000    67.01000000
   H     -0.24000000    62.48000000    67.58000000
  Ca      1.04000000    68.10000000    80.92000000
   O      0.58000000    70.70000000    80.73000000
   H     -0.25000000    71.03000000    80.39000000
   H      1.11000000    71.49000000    80.88000000

Ca 1.70



