%chk=Ng-293_loop3_42.0.chk
%nprocshared=48
%mem=10GB
%nosave
#b3lyp/svp scf=(tight,noincore) Test 
#IOP(5/87=12) Density=Current Pop=(MK,readradii) iop(6/33=2) iop(6/42=6)

Ng-293_loop3_42.0 

   0   1
   C     38.97000000    78.01000000    70.68000000
   C     39.49000000    77.93000000    69.25000000
   O     40.65000000    78.28000000    69.04000000
   H     37.94500000    77.64200000    70.71400000
   H     39.59700000    77.39900000    71.33000000
   H     38.99500000    79.04600000    71.01900000
   N     38.79000000    77.38000000    68.26000000
   C     39.29000000    77.12000000    66.92000000
   C     38.88000000    75.71000000    66.50000000
   O     38.22000000    75.02000000    67.28000000
   C     38.68000000    78.22000000    66.05000000
   C     39.17000000    78.12000000    64.62000000
   O     40.28000000    77.64000000    64.32000000
   O     38.51000000    78.56000000    63.65000000
   H     37.92000000    76.93000000    68.54000000
   H     40.38000000    77.15000000    66.93000000
   H     39.04000000    79.18000000    66.42000000
   H     37.59000000    78.19000000    66.10000000
   N     39.31000000    75.23000000    65.34000000
   C     39.01000000    73.99000000    64.65000000
   C     37.54000000    73.79000000    64.30000000
   O     36.76000000    74.71000000    64.54000000
   C     39.70000000    72.80000000    65.31000000
   C     41.22000000    72.84000000    65.45000000
   C     41.98000000    72.80000000    64.12000000
   C     43.42000000    72.38000000    64.41000000
   N     44.21000000    73.45000000    65.04000000
   H     39.93000000    75.86000000    64.85000000
   H     39.48000000    74.06000000    63.67000000
   H     39.42000000    71.88000000    64.79000000
   H     39.23000000    72.76000000    66.29000000
   H     41.40000000    71.96000000    66.06000000
   H     41.55000000    73.72000000    66.00000000
   H     41.79000000    73.70000000    63.55000000
   H     41.55000000    72.01000000    63.50000000
   H     43.98000000    72.13000000    63.50000000
   H     43.32000000    71.57000000    65.13000000
   H     44.19000000    74.33000000    64.54000000
   H     43.88000000    73.70000000    65.96000000
   H     45.17000000    73.16000000    65.15000000
   N     37.24000000    72.66000000    63.66000000
   C     35.89000000    72.32000000    63.26000000
   C     35.10000000    71.79000000    64.45000000
   O     35.15000000    70.62000000    64.82000000
   C     35.80000000    71.34000000    62.11000000
   C     36.76000000    70.16000000    62.13000000
   O     37.94000000    70.28000000    62.53000000
   O     36.45000000    69.06000000    61.64000000
   H     37.96000000    72.03000000    63.31000000
   H     35.52000000    73.28000000    62.89000000
   H     35.81000000    71.89000000    61.17000000
   H     34.83000000    70.84000000    62.08000000
   N     34.17000000    72.61000000    64.96000000
   C     33.15000000    72.25000000    65.93000000
   C     32.05000000    71.42000000    65.30000000
   O     31.27000000    70.84000000    66.06000000
   H     34.19000000    73.56000000    64.63000000
   H     32.68000000    73.15000000    66.33000000
   H     33.73000000    71.82000000    66.75000000
   N     31.89000000    71.40000000    63.97000000
   C     30.82000000    70.71000000    63.29000000
   C     30.70000000    69.20000000    63.45000000
   O     31.66000000    68.46000000    63.27000000
   C     30.88000000    71.10000000    61.82000000
   C     30.09000000    72.38000000    61.57000000
   N     28.78000000    72.26000000    61.83000000
   O     30.61000000    73.48000000    61.39000000
   H     32.44000000    72.03000000    63.39000000
   H     29.88000000    71.06000000    63.71000000
   H     30.36000000    70.41000000    61.15000000
   H     31.88000000    71.33000000    61.47000000
   H     28.35000000    71.36000000    61.97000000
   H     28.16000000    73.06000000    61.79000000
   N     29.49000000    68.72000000    63.75000000
   C     29.16000000    67.30000000    63.80000000
   C     29.51000000    66.62000000    65.11000000
   O     30.08000000    67.18000000    66.05000000
   H     28.92000000    69.36000000    64.28000000
   H     29.68000000    66.86000000    62.95000000
   H     28.08000000    67.24000000    63.72000000
   N     29.23000000    65.31000000    65.13000000
   C     29.19000000    64.42000000    66.27000000
   C     30.58000000    64.34000000    66.89000000
   O     30.75000000    63.75000000    67.96000000
   C     28.15000000    64.97000000    67.24000000
   C     27.27000000    63.93000000    67.90000000
   C     27.25000000    63.77000000    69.29000000
   C     26.42000000    63.11000000    67.14000000
   C     26.39000000    62.89000000    69.96000000
   C     25.49000000    62.28000000    67.76000000
   C     25.49000000    62.15000000    69.17000000
   O     24.58000000    61.35000000    69.80000000
   H     28.72000000    64.96000000    64.33000000
   H     28.88000000    63.42000000    65.97000000
   H     27.39000000    65.60000000    66.77000000
   H     28.56000000    65.57000000    68.06000000
   H     27.91000000    64.40000000    69.87000000
   H     26.45000000    63.28000000    66.07000000
   H     26.46000000    62.77000000    71.03000000
   H     24.73000000    61.84000000    67.14000000
   H     23.98000000    60.92000000    69.19000000
   N     31.65000000    64.79000000    66.24000000
   C     33.06000000    64.60000000    66.52000000
   C     33.64000000    63.21000000    66.33000000
   O     34.60000000    63.01000000    65.58000000
   C     33.50000000    65.20000000    67.86000000
   C     32.91000000    66.53000000    68.32000000
   C     35.01000000    65.22000000    68.04000000
   C     33.29000000    67.79000000    67.55000000
   H     31.51000000    65.28000000    65.37000000
   H     33.61000000    65.11000000    65.73000000
   H     33.15000000    64.52000000    68.64000000
   H     33.25000000    66.62000000    69.35000000
   H     31.82000000    66.44000000    68.31000000
   H     35.53000000    64.27000000    68.15000000
   H     35.43000000    65.68000000    67.15000000
   H     35.24000000    65.85000000    68.90000000
   H     33.06000000    68.67000000    68.16000000
   H     34.36000000    67.68000000    67.44000000
   H     32.78000000    67.71000000    66.59000000
   N     33.05000000    62.26000000    67.06000000
   C     33.34000000    60.84000000    67.04000000
   C     34.68000000    60.67000000    67.76000000
   O     35.39000000    59.73000000    67.40000000
   C     32.27000000    60.08000000    67.83000000
   O     32.00000000    60.74000000    69.05000000
   H     32.24000000    62.55000000    67.60000000
   H     33.40000000    60.37000000    66.06000000
   H     32.61000000    59.06000000    68.01000000
   H     31.34000000    60.04000000    67.26000000
   H     31.06000000    60.56000000    69.10000000
   N     35.08000000    61.57000000    68.65000000
   C     36.33000000    61.57000000    69.38000000
   C     37.60000000    61.68000000    68.55000000
   O     38.69000000    61.32000000    69.00000000
   C     36.33000000    60.52000000    70.48000000
   H     34.47000000    62.38000000    68.71000000
   H     36.42000000    62.50000000    69.95000000
   H     36.99000000    60.86000000    71.28000000
   H     35.33000000    60.32000000    70.86000000
   H     36.71000000    59.53000000    70.22000000
   N     37.54000000    62.22000000    67.33000000
   C     38.69000000    62.41000000    66.47000000
   C     39.41000000    63.69000000    66.88000000
   O     38.93000000    64.62000000    67.52000000
   C     38.20000000    62.50000000    65.03000000
   H     36.68000000    62.70000000    67.07000000
   H     39.37000000    61.55000000    66.46000000
   H     37.37000000    63.21000000    65.03000000
   H     38.95000000    62.95000000    64.38000000
   H     37.91000000    61.50000000    64.70000000
   N     40.67000000    63.85000000    66.49000000
   C     41.53000000    65.01000000    66.64000000
   C     41.73000000    65.68000000    67.99000000
   O     42.33000000    66.76000000    67.97000000
   C     41.02000000    66.06000000    65.66000000
   C     41.51000000    65.88000000    64.23000000
   C     40.97000000    66.78000000    63.13000000
   O     40.23000000    67.74000000    63.43000000
   O     41.09000000    66.52000000    61.91000000
   H     41.12000000    63.09000000    66.01000000
   H     42.52000000    64.65000000    66.34000000
   H     41.33000000    67.06000000    65.97000000
   H     39.93000000    66.08000000    65.63000000
   H     41.18000000    64.87000000    63.96000000
   H     42.60000000    65.94000000    64.22000000
   N     41.37000000    65.06000000    69.11000000
   C     41.26000000    65.73000000    70.39000000
   H     40.20800000    65.87700000    70.63300000
   H     41.72900000    65.12000000    71.16200000
   H     41.75900000    66.69800000    70.33800000
   H     40.91000000    64.17000000    69.00000000
  Ca     38.91000000    68.26000000    61.19000000
   O     37.36000000    66.76000000    59.68000000
   H     36.68000000    67.13000000    59.12000000
   H     36.95000000    65.97000000    60.05000000

Ca 1.70



