%chk=Ng-293_loop3_5.0.chk
%nprocshared=48
%mem=10GB
%nosave
#b3lyp/svp scf=(tight,noincore) Test 
#IOP(5/87=12) Density=Current Pop=(MK,readradii) iop(6/33=2) iop(6/42=6)

Ng-293_loop3_5.0 

   0   1
   C     42.26000000    83.21000000    67.66000000
   C     42.40000000    83.12000000    66.15000000
   O     43.48000000    83.36000000    65.63000000
   H     41.20300000    83.20200000    67.92700000
   H     42.75800000    82.35800000    68.12300000
   H     42.71600000    84.13500000    68.01300000
   N     41.39000000    82.65000000    65.41000000
   C     41.43000000    82.65000000    63.96000000
   C     41.03000000    81.32000000    63.32000000
   O     40.39000000    80.50000000    63.98000000
   C     40.63000000    83.87000000    63.52000000
   C     40.71000000    84.10000000    62.01000000
   O     41.73000000    83.85000000    61.34000000
   O     39.67000000    84.57000000    61.50000000
   H     40.48000000    82.43000000    65.80000000
   H     42.45000000    82.82000000    63.63000000
   H     41.17000000    84.70000000    63.96000000
   H     39.56000000    83.83000000    63.76000000
   N     41.48000000    81.09000000    62.09000000
   C     41.32000000    79.85000000    61.36000000
   C     39.91000000    79.56000000    60.87000000
   O     38.91000000    80.18000000    61.23000000
   C     41.95000000    78.69000000    62.14000000
   C     43.40000000    78.94000000    62.53000000
   C     44.34000000    79.13000000    61.34000000
   C     45.82000000    79.13000000    61.72000000
   N     46.16000000    80.35000000    62.47000000
   H     41.96000000    81.87000000    61.66000000
   H     41.87000000    79.97000000    60.43000000
   H     41.94000000    77.78000000    61.54000000
   H     41.29000000    78.42000000    62.96000000
   H     43.67000000    78.06000000    63.10000000
   H     43.45000000    79.77000000    63.24000000
   H     44.13000000    80.06000000    60.81000000
   H     44.17000000    78.35000000    60.60000000
   H     46.40000000    79.11000000    60.79000000
   H     46.13000000    78.24000000    62.26000000
   H     45.97000000    81.16000000    61.89000000
   H     45.54000000    80.34000000    63.27000000
   H     47.12000000    80.35000000    62.78000000
   N     39.84000000    78.51000000    60.05000000
   C     38.58000000    78.14000000    59.41000000
   C     37.60000000    77.66000000    60.47000000
   O     36.54000000    78.24000000    60.70000000
   C     38.85000000    77.14000000    58.29000000
   C     39.96000000    77.50000000    57.32000000
   O     39.79000000    78.35000000    56.42000000
   O     41.04000000    76.89000000    57.44000000
   H     40.68000000    78.08000000    59.70000000
   H     38.19000000    78.96000000    58.81000000
   H     37.98000000    77.09000000    57.64000000
   H     39.01000000    76.17000000    58.76000000
   N     38.03000000    76.61000000    61.17000000
   C     37.28000000    75.96000000    62.22000000
   C     35.78000000    75.77000000    62.08000000
   O     35.03000000    76.20000000    62.95000000
   H     38.86000000    76.07000000    60.96000000
   H     37.41000000    76.53000000    63.14000000
   H     37.66000000    74.95000000    62.37000000
   N     35.23000000    75.20000000    61.00000000
   C     33.83000000    75.36000000    60.66000000
   C     32.88000000    74.40000000    61.36000000
   O     33.04000000    73.18000000    61.32000000
   C     33.64000000    75.25000000    59.15000000
   C     32.25000000    75.75000000    58.79000000
   N     31.95000000    77.00000000    59.15000000
   O     31.44000000    74.98000000    58.28000000
   H     35.83000000    74.79000000    60.30000000
   H     33.66000000    76.38000000    61.01000000
   H     33.75000000    74.25000000    58.73000000
   H     34.36000000    75.90000000    58.65000000
   H     32.53000000    77.59000000    59.74000000
   H     31.03000000    77.37000000    58.96000000
   N     31.79000000    74.91000000    61.93000000
   C     30.60000000    74.19000000    62.32000000
   C     30.93000000    73.16000000    63.40000000
   O     31.33000000    73.44000000    64.53000000
   H     31.69000000    75.90000000    62.10000000
   H     30.24000000    73.65000000    61.45000000
   H     29.80000000    74.83000000    62.70000000
   N     30.76000000    71.87000000    63.11000000
   C     31.08000000    70.75000000    63.97000000
   C     32.54000000    70.59000000    64.38000000
   O     32.86000000    69.66000000    65.11000000
   C     30.13000000    70.63000000    65.17000000
   C     28.77000000    70.06000000    64.88000000
   C     27.87000000    70.84000000    64.14000000
   C     28.41000000    68.75000000    65.24000000
   C     26.59000000    70.35000000    63.84000000
   C     27.12000000    68.29000000    64.94000000
   C     26.17000000    69.07000000    64.25000000
   O     24.94000000    68.54000000    63.96000000
   H     30.28000000    71.71000000    62.23000000
   H     30.94000000    69.85000000    63.38000000
   H     30.05000000    71.59000000    65.68000000
   H     30.55000000    69.92000000    65.88000000
   H     28.15000000    71.80000000    63.75000000
   H     29.09000000    68.13000000    65.80000000
   H     25.88000000    70.95000000    63.30000000
   H     26.93000000    67.26000000    65.18000000
   H     24.80000000    67.63000000    64.20000000
   N     33.38000000    71.47000000    63.84000000
   C     34.83000000    71.56000000    63.84000000
   C     35.64000000    70.42000000    63.26000000
   O     36.51000000    70.67000000    62.42000000
   C     35.24000000    71.89000000    65.28000000
   C     34.78000000    73.30000000    65.63000000
   C     36.72000000    71.63000000    65.52000000
   C     34.99000000    73.65000000    67.10000000
   H     32.97000000    72.03000000    63.10000000
   H     35.02000000    72.44000000    63.23000000
   H     34.66000000    71.27000000    65.95000000
   H     33.71000000    73.30000000    65.42000000
   H     35.28000000    73.98000000    64.94000000
   H     36.95000000    71.69000000    66.59000000
   H     36.80000000    70.59000000    65.20000000
   H     37.33000000    72.34000000    64.97000000
   H     34.73000000    74.69000000    67.31000000
   H     34.40000000    72.98000000    67.73000000
   H     36.04000000    73.57000000    67.37000000
   N     35.28000000    69.18000000    63.59000000
   C     35.69000000    67.94000000    62.96000000
   C     37.12000000    67.51000000    63.24000000
   O     37.66000000    66.81000000    62.40000000
   C     34.68000000    66.81000000    63.15000000
   O     33.49000000    67.08000000    62.44000000
   H     34.59000000    69.13000000    64.33000000
   H     35.80000000    68.19000000    61.91000000
   H     34.32000000    66.60000000    64.16000000
   H     35.10000000    65.93000000    62.67000000
   H     32.79000000    66.65000000    62.94000000
   N     37.74000000    67.94000000    64.34000000
   C     39.10000000    67.63000000    64.75000000
   C     40.11000000    67.80000000    63.63000000
   O     40.93000000    66.92000000    63.39000000
   C     39.16000000    66.31000000    65.51000000
   H     37.25000000    68.58000000    64.95000000
   H     39.30000000    68.32000000    65.57000000
   H     38.93000000    65.47000000    64.85000000
   H     40.13000000    66.18000000    65.98000000
   H     38.35000000    66.36000000    66.24000000
   N     40.01000000    68.89000000    62.86000000
   C     40.98000000    69.18000000    61.82000000
   C     41.66000000    70.53000000    62.04000000
   O     41.12000000    71.59000000    62.34000000
   C     40.23000000    69.11000000    60.50000000
   H     39.41000000    69.65000000    63.13000000
   H     41.81000000    68.47000000    61.83000000
   H     39.70000000    68.16000000    60.43000000
   H     39.62000000    70.01000000    60.37000000
   H     40.99000000    69.21000000    59.73000000
   N     42.95000000    70.42000000    61.70000000
   C     43.92000000    71.50000000    61.74000000
   C     44.31000000    71.88000000    63.17000000
   O     44.59000000    73.05000000    63.40000000
   C     43.71000000    72.66000000    60.79000000
   C     43.41000000    72.21000000    59.36000000
   C     43.23000000    73.30000000    58.31000000
   O     42.12000000    73.80000000    58.05000000
   O     44.14000000    73.70000000    57.56000000
   H     43.33000000    69.54000000    61.40000000
   H     44.81000000    71.03000000    61.32000000
   H     44.49000000    73.43000000    60.79000000
   H     42.85000000    73.26000000    61.11000000
   H     42.51000000    71.60000000    59.33000000
   H     44.31000000    71.65000000    59.11000000
   N     44.23000000    70.93000000    64.10000000
   C     44.45000000    71.20000000    65.51000000
   H     45.18100000    72.00100000    65.61600000
   H     43.51100000    71.50200000    65.97400000
   H     44.82400000    70.30000000    65.99900000
   H     44.05000000    69.98000000    63.83000000
  Ca     42.17000000    75.16000000    55.82000000
   O     44.11000000    76.81000000    56.57000000
   H     44.50000000    76.70000000    57.44000000
   H     44.82000000    77.15000000    56.03000000

Ca 1.70



