%chk=Ng-295_loop3_3.0.chk
%nprocshared=48
%mem=10GB
%nosave
#b3lyp/svp scf=(tight,noincore) Test 
#IOP(5/87=12) Density=Current Pop=(MK,readradii) iop(6/33=2) iop(6/42=6)

Ng-295_loop3_3.0 

   0   1
   C     91.92000000    33.22000000    67.07000000
   C     92.50000000    33.51000000    68.44000000
   O     91.73000000    33.93000000    69.31000000
   H     91.03000000    33.83100000    66.91600000
   H     92.65900000    33.45600000    66.30400000
   H     91.65200000    32.16600000    67.00400000
   N     93.82000000    33.51000000    68.66000000
   C     94.37000000    34.08000000    69.87000000
   C     95.70000000    34.69000000    69.48000000
   O     96.45000000    34.06000000    68.74000000
   C     94.49000000    32.92000000    70.86000000
   C     95.13000000    33.40000000    72.16000000
   O     94.50000000    33.42000000    73.24000000
   O     96.27000000    33.89000000    72.09000000
   H     94.39000000    33.02000000    67.99000000
   H     93.66000000    34.77000000    70.33000000
   H     95.08000000    32.15000000    70.36000000
   H     93.54000000    32.44000000    71.08000000
   N     96.00000000    35.92000000    69.92000000
   C     97.23000000    36.67000000    69.80000000
   C     98.63000000    36.11000000    70.01000000
   O     99.57000000    36.46000000    69.30000000
   C     97.04000000    37.82000000    70.79000000
   C     97.82000000    39.01000000    70.25000000
   C     97.56000000    40.43000000    70.75000000
   C     97.79000000    40.58000000    72.26000000
   N     97.50000000    41.92000000    72.77000000
   H     95.29000000    36.35000000    70.49000000
   H     97.27000000    37.00000000    68.77000000
   H     97.36000000    37.57000000    71.80000000
   H     96.02000000    38.19000000    70.91000000
   H     97.83000000    39.03000000    69.16000000
   H     98.89000000    38.88000000    70.43000000
   H     96.51000000    40.63000000    70.53000000
   H     98.16000000    41.18000000    70.24000000
   H     98.79000000    40.22000000    72.49000000
   H     97.06000000    39.90000000    72.71000000
   H     96.54000000    42.21000000    72.61000000
   H     97.75000000    42.09000000    73.73000000
   H     97.98000000    42.65000000    72.27000000
   N     98.72000000    35.12000000    70.90000000
   C     99.89000000    34.27000000    71.02000000
   C     99.68000000    32.81000000    70.62000000
   O    100.63000000    32.11000000    70.29000000
   C    100.42000000    34.29000000    72.45000000
   C     99.37000000    34.06000000    73.52000000
   O     98.69000000    33.01000000    73.51000000
   O     99.28000000    34.81000000    74.52000000
   H     97.84000000    34.95000000    71.38000000
   H    100.65000000    34.74000000    70.40000000
   H    100.87000000    35.27000000    72.62000000
   H    101.25000000    33.58000000    72.55000000
   N     98.44000000    32.31000000    70.61000000
   C     98.04000000    30.96000000    70.29000000
   C     97.97000000    29.97000000    71.45000000
   O     97.61000000    28.83000000    71.17000000
   H     97.67000000    32.90000000    70.88000000
   H     98.78000000    30.59000000    69.59000000
   H     97.09000000    31.03000000    69.76000000
   N     98.14000000    30.40000000    72.70000000
   C     97.90000000    29.67000000    73.94000000
   C     96.56000000    30.20000000    74.41000000
   O     96.45000000    31.38000000    74.76000000
   C     99.17000000    29.70000000    74.79000000
   C     99.24000000    28.51000000    75.74000000
   N     99.64000000    28.75000000    76.99000000
   O     98.89000000    27.38000000    75.42000000
   H     98.45000000    31.35000000    72.83000000
   H     97.72000000    28.65000000    73.59000000
   H     99.35000000    30.63000000    75.33000000
   H     99.96000000    29.57000000    74.06000000
   H     99.85000000    29.72000000    77.20000000
   H     99.82000000    27.97000000    77.60000000
   N     95.56000000    29.32000000    74.53000000
   C     94.18000000    29.62000000    74.85000000
   C     93.73000000    30.48000000    76.02000000
   O     92.54000000    30.65000000    76.28000000
   H     95.74000000    28.41000000    74.13000000
   H     93.74000000    28.63000000    74.97000000
   H     93.78000000    30.10000000    73.95000000
   N     94.70000000    30.97000000    76.80000000
   C     94.55000000    31.73000000    78.02000000
   C     94.50000000    33.23000000    77.76000000
   O     95.14000000    33.78000000    76.87000000
   C     95.70000000    31.49000000    79.00000000
   C     95.84000000    30.07000000    79.50000000
   C     96.69000000    29.11000000    78.92000000
   C     95.11000000    29.63000000    80.61000000
   C     96.72000000    27.79000000    79.37000000
   C     95.13000000    28.33000000    81.11000000
   C     96.02000000    27.40000000    80.53000000
   O     96.20000000    26.15000000    81.07000000
   H     95.60000000    30.83000000    76.37000000
   H     93.61000000    31.47000000    78.50000000
   H     95.57000000    32.21000000    79.81000000
   H     96.66000000    31.80000000    78.60000000
   H     97.39000000    29.31000000    78.12000000
   H     94.53000000    30.31000000    81.22000000
   H     97.34000000    27.12000000    78.80000000
   H     94.45000000    28.09000000    81.92000000
   H     95.70000000    26.10000000    81.89000000
   N     93.61000000    33.84000000    78.55000000
   C     93.01000000    35.15000000    78.40000000
   C     93.94000000    36.34000000    78.58000000
   O     95.16000000    36.26000000    78.77000000
   C     92.23000000    35.37000000    77.11000000
   C     91.20000000    34.27000000    76.86000000
   C     93.06000000    35.59000000    75.85000000
   C     90.11000000    34.64000000    75.86000000
   H     93.19000000    33.35000000    79.32000000
   H     92.20000000    35.27000000    79.12000000
   H     91.62000000    36.25000000    77.32000000
   H     90.65000000    33.92000000    77.74000000
   H     91.68000000    33.41000000    76.40000000
   H     94.04000000    36.04000000    75.96000000
   H     93.28000000    34.68000000    75.29000000
   H     92.41000000    36.20000000    75.21000000
   H     89.44000000    35.36000000    76.33000000
   H     90.43000000    35.16000000    74.96000000
   H     89.47000000    33.78000000    75.63000000
   N     93.45000000    37.58000000    78.51000000
   C     94.16000000    38.78000000    78.90000000
   C     94.26000000    38.94000000    80.41000000
   O     95.26000000    39.34000000    81.00000000
   C     93.50000000    40.04000000    78.35000000
   O     92.17000000    40.20000000    78.79000000
   H     92.45000000    37.68000000    78.48000000
   H     95.17000000    38.77000000    78.48000000
   H     93.45000000    40.14000000    77.26000000
   H     94.13000000    40.91000000    78.53000000
   H     91.85000000    41.04000000    78.48000000
   N     93.23000000    38.54000000    81.15000000
   C     93.08000000    38.68000000    82.58000000
   C     93.67000000    39.94000000    83.19000000
   O     94.52000000    39.81000000    84.06000000
   C     93.53000000    37.39000000    83.26000000
   H     92.46000000    38.13000000    80.63000000
   H     92.03000000    38.70000000    82.88000000
   H     94.57000000    37.24000000    82.97000000
   H     93.37000000    37.48000000    84.34000000
   H     92.93000000    36.57000000    82.87000000
   N     93.39000000    41.18000000    82.75000000
   C     92.26000000    41.60000000    81.94000000
   C     90.98000000    41.85000000    82.73000000
   O     90.99000000    42.23000000    83.90000000
   C     92.79000000    42.86000000    81.26000000
   H     93.87000000    41.84000000    83.34000000
   H     92.02000000    40.86000000    81.19000000
   H     92.09000000    43.30000000    80.56000000
   H     92.81000000    43.59000000    82.07000000
   H     93.76000000    42.70000000    80.78000000
   N     89.80000000    41.63000000    82.15000000
   C     89.40000000    41.19000000    80.83000000
   C     88.27000000    40.19000000    81.02000000
   O     88.35000000    39.12000000    80.43000000
   C     89.04000000    42.37000000    79.93000000
   C     87.86000000    43.28000000    80.23000000
   C     87.99000000    44.04000000    81.55000000
   O     87.29000000    43.59000000    82.48000000
   O     88.73000000    45.02000000    81.75000000
   H     89.03000000    41.61000000    82.80000000
   H     90.13000000    40.66000000    80.21000000
   H     88.90000000    41.88000000    78.96000000
   H     89.93000000    43.00000000    79.85000000
   H     86.88000000    42.80000000    80.19000000
   H     87.85000000    43.98000000    79.40000000
   N     87.26000000    40.46000000    81.84000000
   C     86.14000000    39.58000000    82.12000000
   H     85.28400000    39.87800000    81.51400000
   H     86.41500000    38.55300000    81.88000000
   H     85.87800000    39.64900000    83.17600000
   H     87.33000000    41.35000000    82.32000000
  Ca     96.64000000    34.03000000    74.75000000
   O     95.76000000    36.51000000    73.90000000
   H     94.87000000    36.64000000    73.57000000
   H     96.03000000    37.38000000    74.19000000

Ca 1.70



