%chk=Ng-293_loop3_67.0.chk
%nprocshared=48
%mem=10GB
%nosave
#b3lyp/svp scf=(tight,noincore) Test 
#IOP(5/87=12) Density=Current Pop=(MK,readradii) iop(6/33=2) iop(6/42=6)

Ng-293_loop3_67.0 

   0   1
   C     58.20000000    54.80000000    15.57000000
   C     57.95000000    56.15000000    14.92000000
   O     56.88000000    56.74000000    15.01000000
   H     59.06700000    54.86900000    16.22700000
   H     57.32600000    54.50900000    16.15200000
   H     58.38800000    54.05400000    14.79800000
   N     58.91000000    56.65000000    14.14000000
   C     58.95000000    57.99000000    13.58000000
   C     58.09000000    58.32000000    12.37000000
   O     58.52000000    59.17000000    11.59000000
   C     58.94000000    59.10000000    14.62000000
   C     59.46000000    60.46000000    14.17000000
   O     60.68000000    60.66000000    14.35000000
   O     58.65000000    61.35000000    13.84000000
   H     59.74000000    56.09000000    14.05000000
   H     59.99000000    57.99000000    13.27000000
   H     59.43000000    58.75000000    15.53000000
   H     57.89000000    59.18000000    14.93000000
   N     56.97000000    57.62000000    12.16000000
   C     56.27000000    57.57000000    10.89000000
   C     55.41000000    58.79000000    10.60000000
   O     55.12000000    59.00000000     9.42000000
   C     55.50000000    56.25000000    10.83000000
   C     54.06000000    56.27000000    11.32000000
   C     53.86000000    56.64000000    12.79000000
   C     52.42000000    56.86000000    13.24000000
   N     52.33000000    57.39000000    14.61000000
   H     56.76000000    56.83000000    12.75000000
   H     57.08000000    57.47000000    10.17000000
   H     55.98000000    55.46000000    11.42000000
   H     55.53000000    55.93000000     9.79000000
   H     53.57000000    55.30000000    11.22000000
   H     53.55000000    56.99000000    10.68000000
   H     54.49000000    57.51000000    13.01000000
   H     54.22000000    55.84000000    13.43000000
   H     51.90000000    55.91000000    13.15000000
   H     51.93000000    57.52000000    12.52000000
   H     51.38000000    57.70000000    14.80000000
   H     52.56000000    56.62000000    15.21000000
   H     52.98000000    58.15000000    14.72000000
   N     54.96000000    59.58000000    11.57000000
   C     54.13000000    60.76000000    11.40000000
   C     54.53000000    61.79000000    12.45000000
   O     54.90000000    61.39000000    13.55000000
   C     52.70000000    60.33000000    11.72000000
   C     51.63000000    61.41000000    11.57000000
   O     50.52000000    61.38000000    12.14000000
   O     51.85000000    62.33000000    10.75000000
   H     55.35000000    59.45000000    12.50000000
   H     54.19000000    61.21000000    10.41000000
   H     52.74000000    59.96000000    12.75000000
   H     52.44000000    59.45000000    11.14000000
   N     54.58000000    63.08000000    12.12000000
   C     54.63000000    64.16000000    13.09000000
   C     53.38000000    64.31000000    13.94000000
   O     52.32000000    63.84000000    13.54000000
   H     54.16000000    63.32000000    11.23000000
   H     54.73000000    65.04000000    12.45000000
   H     55.50000000    64.10000000    13.73000000
   N     53.48000000    64.91000000    15.14000000
   C     52.32000000    65.26000000    15.93000000
   C     52.44000000    66.63000000    16.60000000
   O     51.52000000    67.11000000    17.26000000
   C     52.03000000    64.29000000    17.06000000
   C     51.72000000    62.86000000    16.62000000
   N     50.64000000    62.76000000    15.84000000
   O     52.37000000    61.87000000    16.94000000
   H     54.38000000    65.09000000    15.55000000
   H     51.48000000    65.37000000    15.24000000
   H     51.18000000    64.63000000    17.66000000
   H     52.80000000    64.23000000    17.83000000
   H     50.25000000    63.62000000    15.48000000
   H     50.40000000    61.82000000    15.55000000
   N     53.63000000    67.23000000    16.53000000
   C     53.99000000    68.35000000    17.37000000
   C     53.70000000    68.03000000    18.83000000
   O     54.02000000    66.96000000    19.34000000
   H     54.37000000    66.89000000    15.93000000
   H     53.58000000    69.33000000    17.11000000
   H     55.08000000    68.39000000    17.38000000
   N     52.99000000    68.94000000    19.49000000
   C     52.51000000    68.73000000    20.84000000
   C     51.48000000    67.64000000    21.13000000
   O     50.98000000    67.66000000    22.25000000
   C     53.62000000    68.87000000    21.88000000
   C     53.30000000    69.60000000    23.16000000
   C     53.03000000    68.93000000    24.36000000
   C     53.20000000    71.00000000    23.17000000
   C     52.67000000    69.63000000    25.51000000
   C     52.83000000    71.71000000    24.32000000
   C     52.57000000    71.03000000    25.53000000
   O     52.23000000    71.65000000    26.69000000
   H     52.66000000    69.76000000    19.00000000
   H     51.97000000    69.65000000    21.05000000
   H     54.47000000    69.44000000    21.49000000
   H     53.96000000    67.85000000    22.02000000
   H     53.16000000    67.86000000    24.33000000
   H     53.48000000    71.49000000    22.25000000
   H     52.52000000    69.06000000    26.42000000
   H     52.70000000    72.78000000    24.25000000
   H     52.18000000    72.60000000    26.57000000
   N     51.12000000    66.86000000    20.11000000
   C     49.91000000    66.07000000    20.12000000
   C     48.61000000    66.86000000    20.07000000
   O     47.94000000    66.76000000    19.04000000
   C     49.92000000    64.98000000    21.18000000
   C     51.23000000    64.22000000    21.35000000
   C     48.76000000    63.99000000    21.05000000
   C     51.50000000    63.02000000    20.45000000
   H     51.60000000    66.92000000    19.22000000
   H     49.96000000    65.48000000    19.21000000
   H     49.71000000    65.36000000    22.18000000
   H     51.27000000    63.84000000    22.37000000
   H     52.07000000    64.92000000    21.34000000
   H     48.96000000    63.12000000    21.68000000
   H     47.84000000    64.50000000    21.33000000
   H     48.77000000    63.81000000    19.97000000
   H     50.98000000    62.10000000    20.69000000
   H     51.19000000    63.29000000    19.44000000
   H     52.57000000    62.79000000    20.46000000
   N     48.37000000    67.80000000    20.99000000
   C     47.20000000    68.66000000    21.10000000
   C     45.92000000    67.83000000    21.05000000
   O     44.98000000    68.23000000    20.37000000
   C     47.25000000    69.47000000    22.40000000
   O     48.49000000    70.12000000    22.54000000
   H     49.13000000    68.04000000    21.61000000
   H     47.19000000    69.37000000    20.28000000
   H     47.04000000    68.71000000    23.15000000
   H     46.47000000    70.22000000    22.35000000
   H     48.70000000    70.11000000    23.48000000
   N     45.94000000    66.64000000    21.66000000
   C     44.77000000    65.79000000    21.56000000
   C     44.33000000    65.40000000    20.16000000
   O     43.12000000    65.30000000    19.98000000
   C     43.70000000    66.36000000    22.48000000
   H     46.72000000    66.40000000    22.24000000
   H     45.08000000    64.80000000    21.90000000
   H     44.08000000    66.48000000    23.50000000
   H     43.11000000    67.20000000    22.11000000
   H     42.99000000    65.55000000    22.65000000
   N     45.21000000    65.32000000    19.15000000
   C     44.97000000    64.85000000    17.80000000
   C     45.55000000    63.51000000    17.36000000
   O     46.62000000    63.19000000    17.87000000
   C     45.36000000    65.94000000    16.80000000
   H     46.06000000    65.83000000    19.33000000
   H     43.90000000    64.72000000    17.68000000
   H     46.39000000    66.27000000    16.96000000
   H     45.25000000    65.51000000    15.81000000
   H     44.65000000    66.75000000    16.93000000
   N     44.92000000    62.76000000    16.46000000
   C     45.49000000    61.57000000    15.86000000
   C     45.78000000    60.47000000    16.87000000
   O     46.62000000    59.60000000    16.66000000
   C     46.68000000    62.00000000    15.01000000
   C     46.43000000    63.12000000    14.01000000
   C     47.74000000    63.50000000    13.32000000
   O     48.75000000    63.95000000    13.90000000
   O     47.74000000    63.59000000    12.07000000
   H     44.06000000    63.08000000    16.03000000
   H     44.73000000    61.15000000    15.20000000
   H     46.98000000    61.10000000    14.48000000
   H     47.54000000    62.33000000    15.60000000
   H     46.09000000    64.02000000    14.53000000
   H     45.59000000    62.90000000    13.35000000
   N     45.02000000    60.41000000    17.97000000
   C     45.25000000    59.52000000    19.10000000
   H     46.04100000    59.92900000    19.72900000
   H     44.33400000    59.42900000    19.68400000
   H     45.54800000    58.53700000    18.73400000
   H     44.21000000    61.00000000    17.93000000
  Ca     50.23000000    64.16000000    11.71000000
   O     49.29000000    63.39000000     9.44000000
   H     49.51000000    63.31000000     8.51000000
   H     48.36000000    63.63000000     9.44000000

Ca 1.70



