%chk=Ng-293_loop3_75.0.chk
%nprocshared=48
%mem=10GB
%nosave
#b3lyp/svp scf=(tight,noincore) Test 
#IOP(5/87=12) Density=Current Pop=(MK,readradii) iop(6/33=2) iop(6/42=6)

Ng-293_loop3_75.0 

   0   1
   C     41.80000000    78.92000000    80.27400000
   C     41.83000000    78.73000000    78.76400000
   O     42.88000000    78.35000000    78.26400000
   H     40.98900000    79.59800000    80.53800000
   H     41.64000000    77.95700000    80.75900000
   H     42.74800000    79.34200000    80.60700000
   N     40.76000000    78.98000000    78.00400000
   C     40.69000000    78.68000000    76.59400000
   C     40.41000000    77.22000000    76.26400000
   O     39.56000000    76.57000000    76.86400000
   C     39.71000000    79.67000000    75.98400000
   C     39.64000000    79.62000000    74.46400000
   O     40.68000000    79.46000000    73.79400000
   O     38.53000000    79.94000000    73.98400000
   H     39.90000000    79.15000000    78.51400000
   H     41.68000000    78.86000000    76.17400000
   H     39.98000000    80.70000000    76.24400000
   H     38.73000000    79.45000000    76.39400000
   N     41.05000000    76.83000000    75.15400000
   C     40.88000000    75.60000000    74.40400000
   C     39.57000000    75.51000000    73.62400000
   O     38.62000000    76.26000000    73.83400000
   C     41.16000000    74.36000000    75.23400000
   C     42.54000000    74.29000000    75.88400000
   C     43.62000000    74.22000000    74.80400000
   C     44.97000000    74.33000000    75.49400000
   N     45.09000000    75.69000000    76.05500000
   H     41.81000000    77.35000000    74.74400000
   H     41.61000000    75.54000000    73.59400000
   H     41.10000000    73.40000000    74.71400000
   H     40.40000000    74.21000000    76.00500000
   H     42.62000000    73.48000000    76.60400000
   H     42.68000000    75.20000000    76.46400000
   H     43.53000000    75.01000000    74.06400000
   H     43.57000000    73.26000000    74.28400000
   H     45.69000000    74.16000000    74.69400000
   H     45.14000000    73.63000000    76.31400000
   H     46.04000000    76.02000000    76.06400000
   H     44.59000000    76.34000000    75.47400000
   H     44.64000000    75.73000000    76.95400000
   N     39.47000000    74.45000000    72.81400000
   C     38.21000000    74.07000000    72.21400000
   C     37.16000000    73.31000000    73.02400000
   O     35.96000000    73.46000000    72.78500000
   C     38.53000000    73.17000000    71.02400000
   C     39.72000000    72.22000000    71.18400000
   O     40.86000000    72.74000000    71.12400000
   O     39.70000000    71.02000000    71.50500000
   H     40.29000000    73.87000000    72.87400000
   H     37.68000000    74.93000000    71.79400000
   H     38.85000000    73.92000000    70.30400000
   H     37.69000000    72.56000000    70.68400000
   N     37.57000000    72.46000000    73.96400000
   C     36.69000000    72.03000000    75.03500000
   C     35.38000000    71.31000000    74.73400000
   O     34.47000000    71.24000000    75.55400000
   H     38.54000000    72.20000000    74.01400000
   H     36.35000000    72.86000000    75.65400000
   H     37.22000000    71.42000000    75.76400000
   N     35.16000000    70.70000000    73.56400000
   C     34.07000000    69.88000000    73.07400000
   C     33.92000000    68.47000000    73.62400000
   O     34.94000000    67.88000000    73.96400000
   C     34.08000000    69.90000000    71.54400000
   C     33.86000000    71.26000000    70.90400000
   N     34.83000000    71.97000000    70.33400000
   O     32.70000000    71.68000000    70.87400000
   H     36.03000000    70.58000000    73.07400000
   H     33.16000000    70.39000000    73.38400000
   H     33.31000000    69.20000000    71.21400000
   H     34.93000000    69.38000000    71.11400000
   H     35.75000000    71.56000000    70.21400000
   H     34.69000000    72.94000000    70.07400000
   N     32.66000000    68.04000000    73.75500000
   C     32.29000000    66.86000000    74.51400000
   C     32.59000000    66.85000000    76.01400000
   O     33.53000000    67.53000000    76.40400000
   H     31.93000000    68.65000000    73.43400000
   H     32.88000000    66.04000000    74.12400000
   H     31.27000000    66.56000000    74.28400000
   N     31.91000000    66.02000000    76.80400000
   C     31.86000000    65.80000000    78.23400000
   C     33.18000000    65.38000000    78.88400000
   O     33.14000000    64.36000000    79.56400000
   C     31.34000000    67.10000000    78.84400000
   C     31.09000000    67.15000000    80.33400000
   C     30.41000000    66.13000000    81.00400000
   C     31.31000000    68.38000000    80.97500000
   C     29.85000000    66.30000000    82.27400000
   C     30.76000000    68.58000000    82.25500000
   C     30.04000000    67.55000000    82.89500000
   O     29.50000000    67.80000000    84.11500000
   H     31.26000000    65.44000000    76.30400000
   H     31.16000000    65.01000000    78.51400000
   H     30.41000000    67.43000000    78.38400000
   H     32.08000000    67.87000000    78.63400000
   H     30.17000000    65.19000000    80.52400000
   H     31.84000000    69.20000000    80.52400000
   H     29.30000000    65.53000000    82.80400000
   H     30.81000000    69.56000000    82.69400000
   H     29.66000000    68.67000000    84.49400000
   N     34.27000000    66.10000000    78.60400000
   C     35.63000000    65.89000000    79.05400000
   C     36.41000000    64.62000000    78.73400000
   O     37.58000000    64.60000000    78.35400000
   C     35.78000000    66.37000000    80.49400000
   C     35.04000000    67.67000000    80.78500000
   C     37.23000000    66.51000000    80.94400000
   C     35.35000000    68.83000000    79.84400000
   H     34.08000000    66.91000000    78.03500000
   H     36.21000000    66.59000000    78.45400000
   H     35.30000000    65.64000000    81.13400000
   H     35.27000000    68.04000000    81.78400000
   H     33.99000000    67.41000000    80.66400000
   H     37.73000000    65.55000000    80.99400000
   H     37.69000000    67.27000000    80.30400000
   H     37.22000000    66.88000000    81.97400000
   H     35.18000000    69.76000000    80.39500000
   H     36.36000000    68.87000000    79.43400000
   H     34.55000000    68.78000000    79.11500000
   N     35.68000000    63.50000000    78.75500000
   C     36.04000000    62.16000000    78.34400000
   C     37.30000000    61.57000000    78.96400000
   O     37.83000000    60.58000000    78.48400000
   C     34.87000000    61.25000000    78.68400000
   O     33.76000000    61.64000000    77.89500000
   H     34.68000000    63.59000000    78.89400000
   H     36.18000000    62.23000000    77.26400000
   H     34.56000000    61.25000000    79.72400000
   H     35.19000000    60.26000000    78.36500000
   H     33.12000000    60.93000000    77.84400000
   N     37.79000000    62.17000000    80.05400000
   C     39.07000000    61.99000000    80.71400000
   C     40.27000000    62.44000000    79.89500000
   O     41.42000000    62.27000000    80.29400000
   C     39.15000000    60.65000000    81.44500000
   H     37.15000000    62.84000000    80.44400000
   H     39.04000000    62.74000000    81.49400000
   H     38.20000000    60.41000000    81.91400000
   H     39.54000000    59.89000000    80.76400000
   H     39.82000000    60.73000000    82.29400000
   N     40.14000000    63.07000000    78.72400000
   C     41.24000000    63.40000000    77.84400000
   C     41.65000000    64.86000000    77.82500000
   O     40.94000000    65.72000000    78.33400000
   C     40.78000000    62.92000000    76.47400000
   H     39.22000000    63.41000000    78.48400000
   H     42.13000000    62.85000000    78.15400000
   H     41.61000000    63.14000000    75.80400000
   H     40.46000000    61.87000000    76.50500000
   H     39.90000000    63.45000000    76.11500000
   N     42.70000000    65.18000000    77.06400000
   C     43.26000000    66.51000000    76.93400000
   C     43.75000000    67.22000000    78.19400000
   O     43.93000000    68.43000000    78.30500000
   C     42.39000000    67.42000000    76.07400000
   C     41.70000000    66.77000000    74.87400000
   C     41.28000000    67.88000000    73.92400000
   O     41.78000000    68.10000000    72.80400000
   O     40.30000000    68.58000000    74.27400000
   H     43.16000000    64.37000000    76.66400000
   H     44.24000000    66.36000000    76.48400000
   H     43.03000000    68.23000000    75.73400000
   H     41.63000000    67.91000000    76.67400000
   H     40.88000000    66.16000000    75.25400000
   H     42.52000000    66.17000000    74.49400000
   N     43.91000000    66.37000000    79.20400000
   C     44.25000000    66.82000000    80.54400000
   H     45.07800000    67.52600000    80.49000000
   H     43.38600000    67.30800000    80.99400000
   H     44.54200000    65.96400000    81.15200000
   H     43.71000000    65.39000000    79.14500000
  Ca     40.82000000    68.91000000    70.49000000
   O     39.04000000    67.87000000    72.09000000
   H     38.61000000    67.03000000    72.26000000
   H     39.39000000    68.14000000    72.94000000

Ca 1.70



