%chk=Ng-295_loop3_28.0.chk
%nprocshared=48
%mem=10GB
%nosave
#b3lyp/svp scf=(tight,noincore) Test 
#IOP(5/87=12) Density=Current Pop=(MK,readradii) iop(6/33=2) iop(6/42=6)

Ng-295_loop3_28.0 

   0   1
   C     10.37900000    76.11100000    69.06000000
   C      9.36900000    75.12100000    68.51000000
   O      8.16900000    75.13100000    68.79000000
   H     11.26400000    76.11700000    68.42400000
   H      9.93900000    77.10800000    69.07800000
   H     10.66100000    75.81900000    70.07200000
   N      9.85900000    74.15100000    67.74000000
   C      9.05900000    73.17100000    67.03000000
   C      8.46900000    72.11100000    67.94000000
   O      9.22900000    71.31100000    68.49000000
   C      9.77900000    72.73100000    65.75000000
   C      8.73900000    72.13100000    64.82000000
   O      8.55900000    72.68100000    63.72000000
   O      7.97900000    71.22100000    65.23000000
   H     10.81900000    74.21100000    67.44000000
   H      8.16900000    73.67100000    66.64000000
   H     10.57900000    72.01100000    65.94000000
   H     10.17900000    73.65100000    65.34000000
   N      7.14900000    71.98100000    68.08000000
   C      6.58900000    71.24100000    69.19000000
   C      6.34900000    69.78100000    68.85000000
   O      6.40900000    68.96100000    69.77000000
   C      5.36900000    71.88100000    69.83000000
   C      5.72900000    73.29100000    70.28000000
   C      4.49900000    73.91100000    70.93000000
   C      4.94900000    75.29100000    71.39000000
   N      6.00900000    75.24100000    72.42000000
   H      6.53900000    72.61100000    67.57000000
   H      7.31900000    71.24100000    70.01000000
   H      5.10900000    71.34100000    70.74000000
   H      4.62900000    71.96100000    69.03000000
   H      5.92900000    73.90100000    69.40000000
   H      6.53900000    73.31100000    71.02000000
   H      4.07900000    73.42100000    71.81000000
   H      3.72900000    74.15100000    70.20000000
   H      4.12900000    75.90100000    71.77000000
   H      5.35900000    75.79100000    70.52000000
   H      5.60900000    74.92100000    73.29000000
   H      6.82900000    74.70100000    72.18000000
   H      6.33900000    76.15100000    72.70000000
   N      6.08900000    69.39100000    67.60000000
   C      5.95900000    68.02100000    67.13000000
   C      7.26900000    67.42100000    66.65000000
   O      7.39900000    66.23100000    66.36000000
   C      4.86900000    67.85100000    66.08000000
   C      4.81900000    68.79100000    64.88000000
   O      3.83900000    68.74100000    64.10000000
   O      5.87900000    69.33100000    64.51000000
   H      6.20900000    70.10100000    66.90000000
   H      5.62900000    67.42100000    67.97000000
   H      3.92900000    67.91100000    66.63000000
   H      5.00900000    66.85100000    65.67000000
   N      8.35900000    68.16100000    66.41000000
   C      9.54900000    67.66100000    65.74000000
   C      9.43900000    67.21100000    64.29000000
   O     10.34900000    66.62100000    63.71000000
   H      8.28900000    69.16100000    66.31000000
   H      9.97900000    66.87100000    66.35000000
   H     10.20900000    68.52100000    65.63000000
   N      8.30900000    67.60100000    63.69000000
   C      7.95900000    67.50100000    62.29000000
   C      8.28900000    68.80100000    61.57000000
   O      8.22900000    69.90100000    62.11000000
   C      6.48900000    67.11100000    62.25000000
   C      6.06900000    66.30100000    61.03000000
   N      6.03900000    64.97100000    61.13000000
   O      5.68900000    66.90100000    60.03000000
   H      7.67900000    68.08100000    64.32000000
   H      8.54900000    66.69100000    61.87000000
   H      5.87900000    68.01100000    62.28000000
   H      6.24900000    66.46100000    63.10000000
   H      6.33900000    64.45100000    61.94000000
   H      5.70900000    64.36100000    60.40000000
   N      8.63900000    68.64100000    60.29000000
   C      9.16900000    69.63100000    59.37000000
   C      9.55900000    69.05100000    58.02000000
   O      9.91900000    69.84100000    57.15000000
   H      8.73900000    67.69100000    59.96000000
   H      9.98900000    70.11100000    59.90000000
   H      8.32900000    70.30100000    59.21000000
   N      9.56900000    67.73100000    57.79000000
   C     10.00900000    67.18100000    56.52000000
   C      8.99900000    67.50100000    55.44000000
   O      7.81900000    67.17100000    55.57000000
   C     10.21900000    65.68100000    56.71000000
   C     11.04900000    64.98100000    55.66000000
   C     10.47900000    64.18100000    54.66000000
   C     12.42900000    65.10100000    55.79000000
   C     11.30900000    63.43100000    53.81000000
   C     13.25900000    64.40100000    54.90000000
   C     12.69900000    63.60100000    53.89000000
   O     13.46900000    62.83100000    53.07000000
   H      9.33900000    67.09100000    58.53000000
   H     10.96900000    67.63100000    56.27000000
   H      9.24900000    65.20100000    56.84000000
   H     10.71900000    65.57100000    57.67000000
   H      9.40900000    64.17100000    54.51000000
   H     12.94900000    65.79100000    56.45000000
   H     10.90900000    62.83100000    53.00000000
   H     14.32900000    64.41100000    55.03000000
   H     14.40900000    63.05100000    53.13000000
   N      9.46900000    68.05100000    54.31000000
   C      8.86900000    68.46100000    53.06000000
   C      8.21900000    67.29100000    52.34000000
   O      7.90900000    66.27100000    52.96000000
   C      8.00900000    69.72100000    53.18000000
   C      8.78900000    70.85100000    53.84000000
   C      6.66900000    69.48100000    53.87000000
   C     10.14900000    71.25100000    53.29000000
   H     10.46900000    68.14100000    54.36000000
   H      9.72900000    68.70100000    52.44000000
   H      7.69900000    69.92100000    52.16000000
   H      8.90900000    70.58100000    54.89000000
   H      8.10900000    71.70100000    53.76000000
   H      6.75900000    69.39100000    54.95000000
   H      5.98900000    70.30100000    53.62000000
   H      6.13900000    68.57100000    53.62000000
   H     10.45900000    72.21100000    53.71000000
   H     10.89900000    70.50100000    53.56000000
   H     10.03900000    71.39100000    52.21000000
   N      8.02900000    67.40100000    51.02000000
   C      7.33900000    66.47100000    50.16000000
   C      7.85900000    66.52100000    48.72000000
   O      7.31900000    65.77100000    47.92000000
   C      5.81900000    66.52100000    50.20000000
   O      5.38900000    67.86100000    50.11000000
   H      8.30900000    68.29100000    50.62000000
   H      7.72900000    65.51100000    50.52000000
   H      5.56900000    66.15100000    51.20000000
   H      5.21900000    65.95100000    49.48000000
   H      4.70900000    67.76100000    49.44000000
   N      8.90900000    67.31100000    48.48000000
   C      9.62900000    67.39100000    47.22000000
   C      8.84900000    67.68100000    45.95000000
   O      8.90900000    66.92100000    44.99000000
   C     10.54900000    66.18100000    47.07000000
   H      9.25900000    67.88100000    49.23000000
   H     10.41900000    68.14100000    47.34000000
   H      9.95900000    65.27100000    47.14000000
   H     11.01900000    66.20100000    46.08000000
   H     11.32900000    66.16100000    47.83000000
   N      8.10900000    68.78100000    45.77000000
   C      8.05900000    69.88100000    46.70000000
   C      8.06900000    71.23100000    45.98000000
   O      7.56900000    71.33100000    44.87000000
   C      6.84900000    69.90100000    47.64000000
   H      7.84900000    69.03100000    44.83000000
   H      8.95900000    69.92100000    47.31000000
   H      6.88900000    70.87100000    48.13000000
   H      5.95900000    69.57100000    47.10000000
   H      7.05900000    69.19100000    48.44000000
   N      8.50900000    72.35100000    46.55000000
   C      8.88900000    72.61100000    47.93000000
   C     10.36900000    72.91100000    48.14000000
   O     10.91900000    72.42100000    49.12000000
   C      7.95900000    73.72100000    48.41000000
   C      7.98900000    73.91100000    49.92000000
   C      6.94900000    74.92100000    50.39000000
   O      7.35900000    75.85100000    51.11000000
   O      5.78900000    74.94100000    49.92000000
   H      8.48900000    73.16100000    45.95000000
   H      8.69900000    71.73100000    48.54000000
   H      6.94900000    73.40100000    48.14000000
   H      8.15900000    74.69100000    47.96000000
   H      8.97900000    74.23100000    50.26000000
   H      7.76900000    72.95100000    50.39000000
   N     11.04900000    73.56100000    47.19000000
   C     12.41900000    73.99100000    47.37000000
   H     13.03600000    73.57900000    46.57200000
   H     12.46600000    75.08000000    47.34000000
   H     12.78800000    73.63700000    48.33300000
   H     10.56900000    73.65100000    46.31000000
  Ca      6.34000000    71.53000000    63.19000000
   O      5.23000000    72.10000000    65.61000000
   H      5.38000000    72.88000000    66.16000000
   H      4.37000000    71.77000000    65.89000000

Ca 1.70



