%chk=Ng-293_loop3_20.0.chk
%nprocshared=48
%mem=10GB
%nosave
#b3lyp/svp scf=(tight,noincore) Test 
#IOP(5/87=12) Density=Current Pop=(MK,readradii) iop(6/33=2) iop(6/42=6)

Ng-293_loop3_20.0 

   0   1
   C     43.22000000    81.62000000    69.51000000
   C     43.09000000    82.12000000    68.08000000
   O     44.01000000    82.85000000    67.69000000
   H     43.78500000    82.34400000    70.09700000
   H     42.22800000    81.49700000    69.94400000
   H     43.74100000    80.66300000    69.51500000
   N     42.11000000    81.77000000    67.24000000
   C     42.02000000    82.17000000    65.85000000
   C     41.82000000    80.97000000    64.94000000
   O     41.49000000    79.89000000    65.42000000
   C     40.88000000    83.16000000    65.62000000
   C     40.73000000    83.61000000    64.18000000
   O     41.75000000    83.93000000    63.51000000
   O     39.62000000    83.73000000    63.63000000
   H     41.44000000    81.07000000    67.51000000
   H     42.89000000    82.69000000    65.46000000
   H     40.90000000    84.01000000    66.31000000
   H     39.90000000    82.72000000    65.78000000
   N     42.09000000    81.09000000    63.64000000
   C     41.62000000    80.22000000    62.58000000
   C     40.11000000    80.01000000    62.51000000
   O     39.35000000    80.64000000    63.24000000
   C     42.31000000    78.86000000    62.59000000
   C     43.81000000    78.84000000    62.82000000
   C     44.52000000    79.47000000    61.62000000
   C     46.02000000    79.41000000    61.90000000
   N     46.79000000    79.69000000    60.68000000
   H     42.46000000    81.97000000    63.33000000
   H     41.96000000    80.65000000    61.63000000
   H     42.09000000    78.38000000    61.63000000
   H     41.95000000    78.16000000    63.34000000
   H     44.06000000    77.78000000    62.74000000
   H     44.21000000    79.30000000    63.73000000
   H     44.34000000    80.54000000    61.55000000
   H     44.32000000    79.02000000    60.65000000
   H     46.28000000    78.42000000    62.26000000
   H     46.31000000    80.05000000    62.73000000
   H     47.76000000    79.80000000    60.91000000
   H     46.65000000    78.99000000    59.97000000
   H     46.47000000    80.56000000    60.27000000
   N     39.70000000    79.18000000    61.55000000
   C     38.34000000    78.82000000    61.21000000
   C     37.75000000    77.70000000    62.05000000
   O     36.62000000    77.97000000    62.46000000
   C     38.17000000    78.60000000    59.71000000
   C     39.27000000    77.83000000    59.00000000
   O     39.25000000    77.94000000    57.75000000
   O     40.14000000    77.11000000    59.55000000
   H     40.48000000    78.78000000    61.04000000
   H     37.69000000    79.68000000    61.41000000
   H     38.19000000    79.57000000    59.22000000
   H     37.24000000    78.04000000    59.57000000
   N     38.45000000    76.60000000    62.35000000
   C     38.05000000    75.58000000    63.30000000
   C     36.76000000    74.86000000    62.93000000
   O     35.99000000    74.49000000    63.82000000
   H     39.44000000    76.57000000    62.15000000
   H     38.04000000    76.02000000    64.29000000
   H     38.86000000    74.86000000    63.16000000
   N     36.36000000    74.72000000    61.67000000
   C     34.95000000    74.99000000    61.46000000
   C     34.05000000    73.77000000    61.62000000
   O     34.30000000    72.68000000    61.12000000
   C     34.78000000    75.61000000    60.08000000
   C     33.28000000    75.72000000    59.84000000
   N     32.82000000    74.98000000    58.83000000
   O     32.58000000    76.49000000    60.51000000
   H     37.07000000    74.76000000    60.95000000
   H     34.50000000    75.76000000    62.09000000
   H     35.28000000    75.07000000    59.27000000
   H     35.18000000    76.63000000    60.11000000
   H     33.45000000    74.58000000    58.15000000
   H     31.85000000    75.06000000    58.57000000
   N     32.98000000    74.02000000    62.38000000
   C     32.00000000    72.99000000    62.64000000
   C     32.46000000    71.62000000    63.14000000
   O     32.84000000    71.53000000    64.30000000
   H     32.68000000    74.99000000    62.36000000
   H     31.41000000    72.80000000    61.74000000
   H     31.30000000    73.37000000    63.38000000
   N     32.43000000    70.62000000    62.26000000
   C     32.83000000    69.30000000    62.69000000
   C     34.26000000    69.20000000    63.22000000
   O     34.69000000    68.21000000    63.81000000
   C     31.84000000    68.63000000    63.64000000
   C     30.45000000    68.54000000    63.06000000
   C     29.48000000    69.45000000    63.49000000
   C     30.11000000    67.53000000    62.15000000
   C     28.15000000    69.26000000    63.12000000
   C     28.77000000    67.35000000    61.76000000
   C     27.78000000    68.24000000    62.22000000
   O     26.47000000    67.92000000    62.07000000
   H     32.26000000    70.77000000    61.27000000
   H     32.82000000    68.65000000    61.81000000
   H     31.74000000    69.17000000    64.59000000
   H     32.18000000    67.60000000    63.71000000
   H     29.68000000    70.30000000    64.14000000
   H     30.83000000    66.77000000    61.88000000
   H     27.39000000    69.86000000    63.60000000
   H     28.55000000    66.48000000    61.16000000
   H     26.46000000    67.13000000    61.52000000
   N     35.07000000    70.20000000    62.87000000
   C     36.52000000    70.26000000    62.86000000
   C     37.20000000    69.22000000    61.98000000
   O     38.18000000    69.51000000    61.30000000
   C     37.04000000    70.17000000    64.29000000
   C     36.28000000    71.02000000    65.30000000
   C     38.47000000    70.69000000    64.27000000
   C     36.48000000    70.64000000    66.77000000
   H     34.56000000    70.96000000    62.44000000
   H     36.84000000    71.25000000    62.53000000
   H     36.97000000    69.10000000    64.49000000
   H     35.23000000    70.78000000    65.16000000
   H     36.48000000    72.09000000    65.20000000
   H     38.93000000    70.46000000    65.23000000
   H     39.13000000    70.21000000    63.55000000
   H     38.51000000    71.77000000    64.08000000
   H     35.78000000    71.18000000    67.40000000
   H     36.42000000    69.56000000    66.84000000
   H     37.46000000    70.96000000    67.13000000
   N     36.61000000    68.04000000    61.78000000
   C     37.04000000    66.96000000    60.92000000
   C     38.45000000    66.43000000    61.13000000
   O     38.99000000    65.84000000    60.19000000
   C     36.00000000    65.85000000    61.07000000
   O     34.70000000    66.33000000    60.85000000
   H     35.70000000    67.97000000    62.21000000
   H     37.04000000    67.34000000    59.90000000
   H     36.00000000    65.52000000    62.11000000
   H     36.22000000    65.07000000    60.34000000
   H     34.08000000    65.61000000    60.71000000
   N     39.03000000    66.64000000    62.32000000
   C     40.43000000    66.46000000    62.63000000
   C     41.39000000    67.07000000    61.61000000
   O     42.52000000    66.62000000    61.49000000
   C     40.70000000    65.01000000    63.01000000
   H     38.39000000    66.94000000    63.04000000
   H     40.70000000    67.00000000    63.54000000
   H     41.76000000    64.78000000    62.95000000
   H     40.28000000    64.74000000    63.98000000
   H     40.22000000    64.38000000    62.27000000
   N     41.08000000    68.23000000    61.02000000
   C     41.93000000    69.05000000    60.17000000
   C     42.58000000    70.17000000    60.96000000
   O     42.03000000    70.59000000    61.98000000
   C     41.00000000    69.59000000    59.09000000
   H     40.16000000    68.59000000    61.22000000
   H     42.74000000    68.48000000    59.71000000
   H     40.18000000    70.14000000    59.57000000
   H     41.62000000    70.23000000    58.46000000
   H     40.42000000    68.81000000    58.59000000
   N     43.72000000    70.59000000    60.42000000
   C     44.46000000    71.75000000    60.88000000
   C     44.82000000    71.69000000    62.36000000
   O     45.26000000    72.67000000    62.97000000
   C     43.71000000    73.02000000    60.49000000
   C     43.42000000    73.20000000    59.00000000
   C     42.80000000    74.53000000    58.60000000
   O     41.57000000    74.52000000    58.41000000
   O     43.46000000    75.59000000    58.48000000
   H     43.95000000    70.26000000    59.49000000
   H     45.44000000    71.79000000    60.41000000
   H     44.31000000    73.85000000    60.85000000
   H     42.77000000    73.04000000    61.05000000
   H     42.75000000    72.37000000    58.76000000
   H     44.33000000    73.00000000    58.42000000
   N     44.89000000    70.47000000    62.89000000
   C     45.17000000    70.18000000    64.28000000
   H     45.96200000    70.83900000    64.63600000
   H     44.27000000    70.34100000    64.87400000
   H     45.49000000    69.14300000    64.37800000
   H     44.55000000    69.81000000    62.21000000
  Ca     41.49000000    76.97000000    57.18000000
   O     42.14000000    79.06000000    58.55000000
   H     43.09000000    79.09000000    58.48000000
   H     41.90000000    79.94000000    58.84000000

Ca 1.70



