%chk=Ng-293_loop3_27.0.chk
%nprocshared=48
%mem=10GB
%nosave
#b3lyp/svp scf=(tight,noincore) Test 
#IOP(5/87=12) Density=Current Pop=(MK,readradii) iop(6/33=2) iop(6/42=6)

Ng-293_loop3_27.0 

   0   1
   C     40.40000000    77.68000000    70.71000000
   C     40.73000000    77.72000000    69.22000000
   O     41.70000000    78.38000000    68.84000000
   H     39.36000000    77.38200000    70.84300000
   H     41.05000000    76.96100000    71.20800000
   H     40.55200000    78.66900000    71.14300000
   N     40.00000000    77.04000000    68.35000000
   C     40.28000000    77.01000000    66.93000000
   C     40.04000000    75.60000000    66.39000000
   O     39.42000000    74.79000000    67.07000000
   C     39.44000000    78.09000000    66.26000000
   C     39.65000000    78.23000000    64.76000000
   O     40.81000000    78.08000000    64.32000000
   O     38.69000000    78.60000000    64.04000000
   H     39.27000000    76.48000000    68.77000000
   H     41.35000000    77.21000000    66.83000000
   H     39.57000000    79.07000000    66.71000000
   H     38.39000000    77.81000000    66.38000000
   N     40.55000000    75.35000000    65.19000000
   C     40.39000000    74.10000000    64.46000000
   C     39.02000000    73.82000000    63.87000000
   O     38.14000000    74.66000000    64.07000000
   C     41.01000000    72.96000000    65.25000000
   C     42.44000000    73.21000000    65.71000000
   C     43.42000000    73.43000000    64.56000000
   C     44.83000000    73.04000000    65.02000000
   N     45.37000000    74.10000000    65.88000000
   H     41.04000000    76.10000000    64.74000000
   H     40.91000000    74.28000000    63.51000000
   H     40.99000000    72.10000000    64.58000000
   H     40.33000000    72.70000000    66.06000000
   H     42.74000000    72.26000000    66.17000000
   H     42.62000000    74.00000000    66.43000000
   H     43.36000000    74.40000000    64.07000000
   H     43.10000000    72.77000000    63.75000000
   H     45.43000000    73.07000000    64.11000000
   H     44.78000000    72.05000000    65.47000000
   H     44.99000000    74.15000000    66.81000000
   H     46.35000000    73.88000000    66.01000000
   H     45.30000000    75.04000000    65.51000000
   N     38.85000000    72.68000000    63.21000000
   C     37.62000000    72.18000000    62.63000000
   C     36.85000000    71.48000000    63.74000000
   O     36.59000000    70.29000000    63.86000000
   C     37.82000000    71.44000000    61.31000000
   C     38.93000000    70.39000000    61.30000000
   O     39.40000000    69.87000000    62.33000000
   O     39.32000000    69.88000000    60.23000000
   H     39.66000000    72.11000000    63.01000000
   H     36.91000000    72.99000000    62.42000000
   H     38.02000000    72.21000000    60.57000000
   H     36.91000000    70.98000000    60.91000000
   N     36.45000000    72.31000000    64.70000000
   C     35.53000000    72.01000000    65.78000000
   C     34.05000000    71.90000000    65.44000000
   O     33.18000000    72.35000000    66.18000000
   H     36.79000000    73.27000000    64.70000000
   H     35.72000000    72.73000000    66.57000000
   H     35.75000000    71.02000000    66.17000000
   N     33.75000000    71.40000000    64.24000000
   C     32.39000000    71.14000000    63.80000000
   C     32.12000000    69.68000000    63.48000000
   O     33.02000000    68.92000000    63.13000000
   C     32.01000000    72.00000000    62.60000000
   C     31.78000000    73.48000000    62.88000000
   N     32.33000000    74.39000000    62.07000000
   O     31.13000000    73.86000000    63.85000000
   H     34.45000000    71.14000000    63.56000000
   H     31.78000000    71.38000000    64.67000000
   H     31.05000000    71.65000000    62.22000000
   H     32.72000000    71.86000000    61.78000000
   H     32.89000000    74.15000000    61.26000000
   H     32.23000000    75.34000000    62.40000000
   N     30.84000000    69.32000000    63.66000000
   C     30.37000000    67.96000000    63.79000000
   C     30.55000000    67.37000000    65.18000000
   O     31.14000000    68.07000000    66.00000000
   H     30.22000000    70.04000000    64.00000000
   H     30.97000000    67.40000000    63.07000000
   H     29.32000000    67.78000000    63.54000000
   N     29.96000000    66.22000000    65.52000000
   C     29.81000000    65.39000000    66.69000000
   C     31.10000000    65.01000000    67.42000000
   O     31.06000000    64.16000000    68.29000000
   C     28.78000000    65.97000000    67.65000000
   C     28.18000000    64.95000000    68.60000000
   C     28.48000000    65.04000000    69.96000000
   C     27.29000000    63.95000000    68.19000000
   C     27.90000000    64.11000000    70.84000000
   C     26.82000000    62.95000000    69.05000000
   C     27.07000000    63.06000000    70.43000000
   O     26.75000000    62.07000000    71.31000000
   H     29.54000000    65.76000000    64.73000000
   H     29.34000000    64.48000000    66.31000000
   H     27.88000000    66.22000000    67.08000000
   H     29.23000000    66.82000000    68.15000000
   H     29.15000000    65.80000000    70.31000000
   H     26.99000000    63.88000000    67.15000000
   H     28.27000000    64.34000000    71.83000000
   H     26.20000000    62.12000000    68.74000000
   H     26.35000000    61.33000000    70.84000000
   N     32.23000000    65.66000000    67.12000000
   C     33.60000000    65.42000000    67.51000000
   C     34.11000000    64.02000000    67.17000000
   O     35.04000000    63.84000000    66.38000000
   C     33.92000000    65.87000000    68.93000000
   C     33.61000000    67.35000000    69.20000000
   C     35.37000000    65.58000000    69.27000000
   C     33.93000000    68.47000000    68.21000000
   H     32.10000000    66.45000000    66.51000000
   H     34.20000000    66.05000000    66.85000000
   H     33.34000000    65.29000000    69.65000000
   H     33.99000000    67.61000000    70.19000000
   H     32.54000000    67.42000000    69.37000000
   H     35.66000000    64.53000000    69.27000000
   H     35.95000000    66.20000000    68.58000000
   H     35.43000000    65.96000000    70.29000000
   H     33.39000000    68.23000000    67.30000000
   H     33.72000000    69.49000000    68.54000000
   H     34.98000000    68.47000000    67.92000000
   N     33.44000000    62.97000000    67.64000000
   C     33.94000000    61.62000000    67.46000000
   C     35.36000000    61.27000000    67.90000000
   O     36.02000000    60.42000000    67.30000000
   C     32.93000000    60.67000000    68.08000000
   O     32.84000000    61.02000000    69.45000000
   H     32.70000000    63.09000000    68.31000000
   H     33.92000000    61.52000000    66.37000000
   H     33.15000000    59.62000000    67.92000000
   H     31.92000000    60.86000000    67.71000000
   H     31.99000000    60.75000000    69.79000000
   N     35.81000000    61.99000000    68.93000000
   C     37.09000000    61.79000000    69.57000000
   C     38.22000000    62.05000000    68.59000000
   O     39.24000000    61.36000000    68.60000000
   C     37.13000000    60.44000000    70.29000000
   H     35.21000000    62.68000000    69.35000000
   H     37.19000000    62.61000000    70.28000000
   H     38.05000000    60.60000000    70.84000000
   H     36.30000000    60.36000000    70.99000000
   H     37.20000000    59.65000000    69.53000000
   N     38.16000000    63.14000000    67.83000000
   C     39.03000000    63.61000000    66.77000000
   C     40.11000000    64.58000000    67.24000000
   O     39.85000000    65.73000000    67.61000000
   C     38.15000000    64.41000000    65.81000000
   H     37.36000000    63.74000000    67.94000000
   H     39.42000000    62.70000000    66.33000000
   H     37.63000000    65.22000000    66.31000000
   H     38.72000000    64.95000000    65.06000000
   H     37.46000000    63.75000000    65.28000000
   N     41.37000000    64.25000000    66.96000000
   C     42.46000000    65.20000000    66.87000000
   C     42.78000000    65.75000000    68.25000000
   O     43.44000000    66.79000000    68.29000000
   C     42.21000000    66.11000000    65.67000000
   C     41.91000000    65.39000000    64.35000000
   C     41.64000000    66.34000000    63.19000000
   O     42.41000000    66.39000000    62.21000000
   O     40.61000000    67.05000000    63.26000000
   H     41.57000000    63.32000000    66.62000000
   H     43.34000000    64.59000000    66.67000000
   H     43.07000000    66.76000000    65.54000000
   H     41.41000000    66.80000000    65.95000000
   H     41.09000000    64.69000000    64.51000000
   H     42.73000000    64.77000000    64.00000000
   N     42.27000000    65.13000000    69.31000000
   C     42.22000000    65.65000000    70.67000000
   H     41.27100000    66.16200000    70.82800000
   H     42.31000000    64.82600000    71.37800000
   H     43.04000000    66.35200000    70.82200000
   H     41.79000000    64.26000000    69.15000000
  Ca     41.17000000    68.41000000    61.08000000
   O     39.42000000    66.58000000    60.64000000
   H     39.16000000    66.30000000    59.76000000
   H     39.32000000    65.80000000    61.18000000

Ca 1.70



