%chk=Ng-295_loop3_27.0.chk
%nprocshared=48
%mem=10GB
%nosave
#b3lyp/svp scf=(tight,noincore) Test 
#IOP(5/87=12) Density=Current Pop=(MK,readradii) iop(6/33=2) iop(6/42=6)

Ng-295_loop3_27.0 

   0   1
   C      9.01700000    73.29300000    66.73000000
   C      8.09700000    72.51300000    65.80000000
   O      7.66700000    73.04300000    64.78000000
   H      9.91000000    73.59900000    66.18400000
   H      8.49700000    74.17700000    67.09900000
   H      9.30400000    72.66200000    67.57100000
   N      7.81700000    71.24300000    66.12000000
   C      7.16700000    70.31300000    65.23000000
   C      6.49700000    69.15300000    65.96000000
   O      7.21700000    68.40300000    66.62000000
   C      8.17700000    69.83300000    64.20000000
   C      7.48700000    69.14300000    63.04000000
   O      6.85700000    69.74300000    62.14000000
   O      7.52700000    67.89300000    62.98000000
   H      8.16700000    70.78300000    66.95000000
   H      6.40700000    70.89300000    64.71000000
   H      8.81700000    69.13300000    64.72000000
   H      8.78700000    70.67300000    63.86000000
   N      5.18700000    68.94300000    65.87000000
   C      4.44700000    68.13300000    66.82000000
   C      3.54700000    67.05300000    66.25000000
   O      2.97700000    66.24300000    66.99000000
   C      3.61700000    69.07300000    67.68000000
   C      4.37700000    70.09300000    68.52000000
   C      3.30700000    71.04300000    69.05000000
   C      3.92700000    72.39300000    69.40000000
   N      4.94700000    72.32300000    70.46000000
   H      4.69700000    69.52300000    65.20000000
   H      5.13700000    67.65300000    67.52000000
   H      3.04700000    68.42300000    68.35000000
   H      2.77700000    69.49300000    67.12000000
   H      5.05700000    70.66300000    67.89000000
   H      4.96700000    69.57300000    69.28000000
   H      2.85700000    70.46300000    69.86000000
   H      2.56700000    71.29300000    68.29000000
   H      3.12700000    72.96300000    69.87000000
   H      4.25700000    72.95300000    68.53000000
   H      5.25700000    73.25300000    70.68000000
   H      4.47700000    71.85300000    71.22000000
   H      5.76700000    71.82300000    70.14000000
   N      3.39700000    66.78300000    64.96000000
   C      2.59700000    65.72300000    64.37000000
   C      2.98700000    64.26300000    64.56000000
   O      2.30700000    63.33300000    64.13000000
   C      2.31700000    66.05300000    62.90000000
   C      3.56700000    66.40300000    62.11000000
   O      4.70700000    66.37300000    62.64000000
   O      3.47700000    66.66300000    60.89000000
   H      4.01700000    67.20300000    64.28000000
   H      1.70700000    65.83300000    64.99000000
   H      1.58700000    66.84300000    62.77000000
   H      1.95700000    65.14300000    62.42000000
   N      4.17700000    63.99300000    65.10000000
   C      4.80700000    62.68300000    64.99000000
   C      5.59700000    62.42300000    63.72000000
   O      6.05700000    61.29300000    63.52000000
   H      4.75700000    64.77300000    65.38000000
   H      4.04700000    61.91300000    65.11000000
   H      5.57700000    62.46300000    65.73000000
   N      5.80700000    63.38300000    62.82000000
   C      6.27700000    63.16300000    61.47000000
   C      7.20700000    64.20300000    60.85000000
   O      6.98700000    65.36300000    61.17000000
   C      5.06700000    62.88300000    60.58000000
   C      5.40700000    62.18300000    59.27000000
   N      5.36700000    62.91300000    58.16000000
   O      5.78700000    61.01300000    59.24000000
   H      5.42700000    64.30300000    62.96000000
   H      6.75700000    62.18300000    61.40000000
   H      4.60700000    63.84300000    60.34000000
   H      4.35700000    62.24300000    61.13000000
   H      4.67700000    63.65300000    58.16000000
   H      5.83700000    62.56300000    57.34000000
   N      8.26700000    63.78300000    60.15000000
   C      9.22700000    64.61300000    59.45000000
   C      9.35700000    64.32300000    57.96000000
   O      9.45700000    65.29300000    57.21000000
   H      8.49700000    62.80300000    60.15000000
   H     10.22700000    64.45300000    59.85000000
   H      8.89700000    65.64300000    59.54000000
   N      9.32700000    63.05300000    57.55000000
   C      9.34700000    62.61300000    56.17000000
   C      8.01700000    62.74300000    55.44000000
   O      7.03700000    62.32300000    56.04000000
   C     10.00700000    61.24300000    56.05000000
   C     10.29700000    60.69300000    54.68000000
   C      9.28700000    59.99300000    54.01000000
   C     11.51700000    60.95300000    54.04000000
   C      9.52700000    59.52300000    52.71000000
   C     11.72700000    60.48300000    52.74000000
   C     10.76700000    59.71300000    52.07000000
   O     10.87700000    59.39300000    50.74000000
   H      9.26700000    62.32300000    58.24000000
   H      9.93700000    63.32300000    55.59000000
   H      9.38700000    60.46300000    56.48000000
   H     10.87700000    61.25300000    56.72000000
   H      8.29700000    59.87300000    54.42000000
   H     12.23700000    61.63300000    54.48000000
   H      8.75700000    59.08300000    52.09000000
   H     12.56700000    60.74300000    52.11000000
   H     11.71700000    59.73300000    50.42000000
   N      7.91700000    63.30300000    54.23000000
   C      6.81700000    63.78300000    53.42000000
   C      5.68700000    62.93300000    52.86000000
   O      5.24700000    62.04300000    53.58000000
   C      6.29700000    65.11300000    53.96000000
   C      7.29700000    66.26300000    54.02000000
   C      5.57700000    64.99300000    55.30000000
   C      6.76700000    67.60300000    53.53000000
   H      8.79700000    63.65300000    53.89000000
   H      7.33700000    64.07300000    52.50000000
   H      5.47700000    65.45300000    53.33000000
   H      8.09700000    65.99300000    53.33000000
   H      7.74700000    66.38300000    55.01000000
   H      6.21700000    64.67300000    56.13000000
   H      5.18700000    65.96300000    55.59000000
   H      4.73700000    64.29300000    55.24000000
   H      6.32700000    67.47300000    52.54000000
   H      6.02700000    67.88300000    54.28000000
   H      7.48700000    68.41300000    53.46000000
   N      5.20700000    63.12300000    51.63000000
   C      4.19700000    62.35300000    50.92000000
   C      4.10700000    62.59300000    49.42000000
   O      3.54700000    61.77300000    48.70000000
   C      2.83700000    62.46300000    51.61000000
   O      2.26700000    63.73300000    51.37000000
   H      5.63700000    63.89300000    51.13000000
   H      4.43700000    61.30300000    51.11000000
   H      3.08700000    62.42300000    52.67000000
   H      2.23700000    61.63300000    51.24000000
   H      1.33700000    63.61300000    51.16000000
   N      4.78700000    63.62300000    48.89000000
   C      5.01700000    63.95300000    47.50000000
   C      3.74700000    63.82300000    46.68000000
   O      3.37700000    62.86300000    46.00000000
   C      6.22700000    63.17300000    46.99000000
   H      5.19700000    64.23300000    49.58000000
   H      5.31700000    65.00300000    47.46000000
   H      6.46700000    63.48300000    45.97000000
   H      7.05700000    63.53300000    47.58000000
   H      6.15700000    62.08300000    47.03000000
   N      2.79700000    64.75300000    46.78000000
   C      2.79700000    65.98300000    47.54000000
   C      3.06700000    67.19300000    46.66000000
   O      2.80700000    67.15300000    45.46000000
   C      1.45700000    66.14300000    48.25000000
   H      1.96700000    64.61300000    46.22000000
   H      3.60700000    65.92300000    48.28000000
   H      0.71700000    66.40300000    47.50000000
   H      1.21700000    65.15300000    48.64000000
   H      1.46700000    66.87300000    49.06000000
   N      3.64700000    68.31300000    47.11000000
   C      4.14700000    68.56300000    48.45000000
   C      5.59700000    69.03300000    48.47000000
   O      6.28700000    68.69300000    49.43000000
   C      3.28700000    69.66300000    49.06000000
   C      3.56700000    70.06300000    50.50000000
   C      2.51700000    71.07300000    50.95000000
   O      2.84700000    72.25300000    51.16000000
   O      1.36700000    70.66300000    51.21000000
   H      3.73700000    69.03300000    46.40000000
   H      3.98700000    67.67300000    49.05000000
   H      2.30700000    69.17300000    49.08000000
   H      3.21700000    70.52300000    48.40000000
   H      4.58700000    70.46300000    50.55000000
   H      3.38700000    69.17300000    51.10000000
   N      6.10700000    69.70300000    47.44000000
   C      7.50700000    70.06300000    47.34000000
   H      8.09500000    69.17300000    47.11700000
   H      7.63900000    70.79500000    46.54300000
   H      7.84100000    70.49100000    48.28500000
   H      5.49700000    70.15300000    46.78000000
  Ca      5.93000000    67.84000000    60.86000000
   O      8.15000000    68.33000000    59.71000000
   H      8.21000000    69.24000000    59.42000000
   H      8.87000000    67.89000000    59.26000000

Ca 1.70



