%chk=Ng-295_loop3_35.0.chk
%nprocshared=48
%mem=10GB
%nosave
#b3lyp/svp scf=(tight,noincore) Test 
#IOP(5/87=12) Density=Current Pop=(MK,readradii) iop(6/33=2) iop(6/42=6)

Ng-295_loop3_35.0 

   0   1
   C      8.38200000    75.79800000    67.95000000
   C      7.22200000    75.19800000    67.16000000
   O      6.30200000    75.90800000    66.76000000
   H      9.20600000    76.02000000    67.27200000
   H      8.05500000    76.71700000    68.43600000
   H      8.71500000    75.08600000    68.70500000
   N      7.31200000    73.91800000    66.81000000
   C      6.47200000    73.23800000    65.84000000
   C      5.86200000    71.92800000    66.31000000
   O      6.57200000    71.07800000    66.83000000
   C      7.26200000    73.17800000    64.54000000
   C      6.49200000    72.52800000    63.40000000
   O      6.74200000    72.78800000    62.20000000
   O      5.55200000    71.72800000    63.61000000
   H      8.12200000    73.42800000    67.15000000
   H      5.66200000    73.89800000    65.55000000
   H      8.17200000    72.58800000    64.66000000
   H      7.61200000    74.17800000    64.30000000
   N      4.53200000    71.78800000    66.36000000
   C      3.77200000    70.62800000    66.77000000
   C      4.04200000    69.28800000    66.10000000
   O      3.48200000    68.26800000    66.50000000
   C      2.28200000    70.95800000    66.72000000
   C      1.84200000    72.34800000    67.15000000
   C      2.30200000    72.70800000    68.56000000
   C      2.09200000    74.17800000    68.88000000
   N      2.35200000    74.53800000    70.28000000
   H      4.05200000    72.46800000    65.79000000
   H      4.11200000    70.44800000    67.79000000
   H      1.62200000    70.21800000    67.18000000
   H      2.03200000    71.02800000    65.66000000
   H      0.77200000    72.49800000    67.31000000
   H      2.20200000    73.09800000    66.44000000
   H      3.36200000    72.47800000    68.61000000
   H      1.76200000    72.17800000    69.35000000
   H      1.02200000    74.34800000    68.72000000
   H      2.66200000    74.81800000    68.21000000
   H      1.94200000    75.45800000    70.41000000
   H      1.80200000    73.86800000    70.80000000
   H      3.34200000    74.53800000    70.49000000
   N      4.77200000    69.25800000    64.99000000
   C      5.18200000    68.02800000    64.35000000
   C      6.64200000    67.99800000    63.94000000
   O      7.22200000    66.93800000    63.70000000
   C      4.20200000    67.75800000    63.21000000
   C      4.08200000    68.98800000    62.33000000
   O      3.04200000    69.66800000    62.25000000
   O      5.12200000    69.45800000    61.82000000
   H      5.13200000    70.14800000    64.67000000
   H      5.18200000    67.15800000    65.02000000
   H      3.19200000    67.55800000    63.58000000
   H      4.62200000    66.97800000    62.58000000
   N      7.29200000    69.16800000    63.89000000
   C      8.68200000    69.28800000    63.53000000
   C      8.90200000    68.88800000    62.08000000
   O      9.98200000    68.44800000    61.69000000
   H      6.77200000    70.02800000    64.00000000
   H      9.33200000    68.70800000    64.19000000
   H      8.98200000    70.32800000    63.39000000
   N      7.89200000    69.09800000    61.23000000
   C      7.98200000    68.88800000    59.80000000
   C      7.93200000    70.27800000    59.19000000
   O      7.39200000    71.24800000    59.71000000
   C      6.98200000    67.83800000    59.31000000
   C      7.15200000    67.32800000    57.89000000
   N      6.33200000    66.39800000    57.39000000
   O      8.09200000    67.61800000    57.16000000
   H      7.05200000    69.53800000    61.59000000
   H      8.98200000    68.52800000    59.57000000
   H      5.94200000    68.11800000    59.45000000
   H      7.12200000    66.93800000    59.91000000
   H      5.53200000    66.05800000    57.91000000
   H      6.13200000    66.45800000    56.40000000
   N      8.56200000    70.36800000    58.01000000
   C      9.10200000    71.58800000    57.45000000
   C     10.06200000    71.42800000    56.28000000
   O     11.02200000    72.18800000    56.20000000
   H      8.79200000    69.49800000    57.55000000
   H      9.67200000    72.09800000    58.23000000
   H      8.22200000    72.18800000    57.20000000
   N      9.75200000    70.52800000    55.35000000
   C     10.45200000    70.51800000    54.08000000
   C      9.79200000    71.54800000    53.19000000
   O      8.58200000    71.73800000    53.36000000
   C     10.33200000    69.08800000    53.54000000
   C     11.30200000    68.74800000    52.43000000
   C     10.81200000    68.07800000    51.31000000
   C     12.68200000    68.80800000    52.62000000
   C     11.63200000    67.50800000    50.32000000
   C     13.53200000    68.10800000    51.76000000
   C     12.99200000    67.42800000    50.65000000
   O     13.78200000    66.72800000    49.78000000
   H      8.92200000    69.94800000    55.44000000
   H     11.53200000    70.67800000    54.08000000
   H      9.29200000    68.97800000    53.22000000
   H     10.44200000    68.40800000    54.38000000
   H      9.74200000    68.13800000    51.19000000
   H     13.09200000    69.18800000    53.55000000
   H     11.09200000    67.00800000    49.52000000
   H     14.60200000    68.19800000    51.92000000
   H     14.70200000    66.99800000    49.79000000
   N     10.57200000    72.22800000    52.35000000
   C     10.22200000    73.32800000    51.47000000
   C      9.18200000    72.96800000    50.41000000
   O      8.25200000    72.17800000    50.58000000
   C      9.82200000    74.60800000    52.19000000
   C     10.89200000    75.15800000    53.12000000
   C      8.40200000    74.71800000    52.75000000
   C     12.27200000    75.57800000    52.61000000
   H     11.51200000    71.88800000    52.21000000
   H     11.14200000    73.55800000    50.94000000
   H      9.79200000    75.32800000    51.37000000
   H     11.14200000    74.39800000    53.87000000
   H     10.54200000    75.98800000    53.73000000
   H      7.69200000    74.22800000    52.08000000
   H      8.35200000    74.31800000    53.76000000
   H      8.12200000    75.75800000    52.88000000
   H     12.96200000    75.47800000    53.45000000
   H     12.53200000    74.88800000    51.81000000
   H     12.33200000    76.58800000    52.21000000
   N      9.25200000    73.66800000    49.28000000
   C      8.16200000    73.87800000    48.35000000
   C      8.65200000    73.94800000    46.91000000
   O      7.85200000    73.55800000    46.05000000
   C      7.51200000    75.18800000    48.76000000
   O      8.30200000    76.35800000    48.62000000
   H      9.95200000    74.38800000    49.18000000
   H      7.39200000    73.10800000    48.47000000
   H      7.14200000    75.17800000    49.78000000
   H      6.68200000    75.37800000    48.08000000
   H      7.78200000    77.15800000    48.51000000
   N      9.86200000    74.37800000    46.54000000
   C     10.31200000    74.50800000    45.17000000
   C      9.30200000    74.98800000    44.14000000
   O      8.95200000    74.31800000    43.17000000
   C     11.06200000    73.28800000    44.67000000
   H     10.47200000    74.75800000    47.25000000
   H     11.05200000    75.30800000    45.19000000
   H     10.42200000    72.40800000    44.71000000
   H     11.46200000    73.51800000    43.68000000
   H     11.94200000    73.17800000    45.31000000
   N      8.63200000    76.11800000    44.39000000
   C      8.99200000    77.13800000    45.35000000
   C     10.29200000    77.80800000    44.89000000
   O     10.54200000    77.96800000    43.70000000
   C      7.76200000    78.03800000    45.39000000
   H      7.90200000    76.30800000    43.73000000
   H      9.17200000    76.71800000    46.34000000
   H      7.93200000    78.98800000    45.89000000
   H      7.49200000    78.26800000    44.35000000
   H      6.94200000    77.45800000    45.81000000
   N     11.20200000    78.22800000    45.76000000
   C     11.26200000    78.15800000    47.21000000
   C     12.72200000    78.00800000    47.64000000
   O     12.97200000    77.30800000    48.62000000
   C     10.66200000    79.36800000    47.92000000
   C     10.42200000    79.18800000    49.42000000
   C      9.76200000    80.46800000    49.91000000
   O      8.61200000    80.77800000    49.54000000
   O     10.40200000    81.18800000    50.71000000
   H     12.00200000    78.71800000    45.37000000
   H     10.80200000    77.24800000    47.58000000
   H      9.65200000    79.47800000    47.52000000
   H     11.23200000    80.25800000    47.67000000
   H     11.40200000    79.02800000    49.87000000
   H      9.76200000    78.34800000    49.65000000
   N     13.68200000    78.62800000    46.95000000
   C     15.10200000    78.53800000    47.20000000
   H     15.59600000    79.42800000    46.81100000
   H     15.27900000    78.46500000    48.27300000
   H     15.50400000    77.65400000    46.70400000
   H     13.31200000    79.35800000    46.36000000
  Ca      4.62000000    71.77000000    61.10000000
   O      4.11000000    74.41000000    60.76000000
   H      3.95000000    74.71000000    59.86000000
   H      4.06000000    75.21000000    61.28000000

Ca 1.70



