%chk=Ng-293_loop3_8.0.chk
%nprocshared=48
%mem=10GB
%nosave
#b3lyp/svp scf=(tight,noincore) Test 
#IOP(5/87=12) Density=Current Pop=(MK,readradii) iop(6/33=2) iop(6/42=6)

Ng-293_loop3_8.0 

   0   1
   C     57.06000000    61.88000000    21.84000000
   C     56.64000000    63.30000000    21.49000000
   O     55.49000000    63.59000000    21.19000000
   H     57.99400000    61.90600000    22.40100000
   H     56.28500000    61.41000000    22.44600000
   H     57.20300000    61.30700000    20.92400000
   N     57.60000000    64.20000000    21.70000000
   C     57.55000000    65.65000000    21.64000000
   C     56.98000000    66.40000000    20.44000000
   O     57.45000000    67.52000000    20.22000000
   C     56.88000000    66.11000000    22.93000000
   C     57.32000000    65.30000000    24.15000000
   O     58.54000000    65.31000000    24.42000000
   O     56.44000000    64.78000000    24.86000000
   H     58.45000000    63.75000000    22.01000000
   H     58.61000000    65.85000000    21.75000000
   H     55.80000000    65.96000000    22.89000000
   H     57.09000000    67.16000000    23.09000000
   N     56.01000000    65.87000000    19.70000000
   C     55.44000000    66.47000000    18.51000000
   C     54.65000000    67.77000000    18.64000000
   O     54.33000000    68.41000000    17.64000000
   C     54.73000000    65.43000000    17.65000000
   C     53.24000000    65.30000000    17.94000000
   C     52.95000000    64.77000000    19.35000000
   C     51.48000000    65.10000000    19.59000000
   N     51.12000000    65.06000000    21.02000000
   H     55.68000000    64.95000000    19.98000000
   H     56.35000000    66.79000000    17.99000000
   H     55.23000000    64.47000000    17.73000000
   H     54.73000000    65.65000000    16.59000000
   H     52.94000000    64.52000000    17.25000000
   H     52.64000000    66.19000000    17.74000000
   H     53.54000000    65.17000000    20.17000000
   H     53.04000000    63.69000000    19.46000000
   H     51.04000000    64.27000000    19.03000000
   H     51.22000000    66.03000000    19.08000000
   H     50.13000000    64.93000000    21.14000000
   H     51.50000000    64.23000000    21.46000000
   H     51.51000000    65.84000000    21.53000000
   N     54.43000000    68.24000000    19.87000000
   C     53.83000000    69.49000000    20.27000000
   C     54.39000000    69.68000000    21.67000000
   O     54.23000000    68.81000000    22.53000000
   C     52.31000000    69.34000000    20.25000000
   C     51.49000000    70.48000000    20.83000000
   O     50.44000000    70.09000000    21.38000000
   O     51.87000000    71.67000000    20.93000000
   H     54.60000000    67.66000000    20.68000000
   H     54.12000000    70.30000000    19.60000000
   H     52.00000000    68.41000000    20.72000000
   H     52.04000000    69.21000000    19.20000000
   N     54.69000000    70.93000000    22.05000000
   C     54.97000000    71.31000000    23.42000000
   C     53.75000000    71.34000000    24.33000000
   O     52.63000000    71.44000000    23.84000000
   H     54.62000000    71.62000000    21.33000000
   H     55.42000000    72.30000000    23.39000000
   H     55.70000000    70.55000000    23.71000000
   N     53.97000000    71.27000000    25.65000000
   C     52.93000000    71.05000000    26.62000000
   C     53.00000000    71.93000000    27.86000000
   O     52.14000000    71.83000000    28.73000000
   C     52.81000000    69.58000000    27.02000000
   C     52.72000000    68.65000000    25.83000000
   N     51.68000000    68.76000000    25.00000000
   O     53.56000000    67.76000000    25.68000000
   H     54.94000000    71.30000000    25.95000000
   H     51.96000000    71.26000000    26.17000000
   H     51.87000000    69.41000000    27.56000000
   H     53.55000000    69.21000000    27.73000000
   H     50.99000000    69.48000000    25.17000000
   H     51.37000000    67.97000000    24.46000000
   N     54.10000000    72.67000000    28.06000000
   C     54.51000000    73.40000000    29.25000000
   C     54.57000000    72.63000000    30.56000000
   O     55.04000000    71.50000000    30.62000000
   H     54.86000000    72.58000000    27.40000000
   H     53.88000000    74.29000000    29.32000000
   H     55.48000000    73.83000000    29.01000000
   N     54.01000000    73.19000000    31.63000000
   C     53.69000000    72.61000000    32.93000000
   C     52.74000000    71.43000000    32.97000000
   O     52.26000000    71.07000000    34.04000000
   C     54.99000000    72.30000000    33.65000000
   C     55.89000000    73.51000000    33.82000000
   C     55.53000000    74.60000000    34.62000000
   C     57.16000000    73.62000000    33.25000000
   C     56.38000000    75.69000000    34.80000000
   C     57.96000000    74.77000000    33.25000000
   C     57.59000000    75.84000000    34.10000000
   O     58.28000000    77.02000000    34.17000000
   H     53.44000000    74.01000000    31.46000000
   H     53.12000000    73.37000000    33.46000000
   H     55.49000000    71.52000000    33.07000000
   H     54.73000000    72.02000000    34.67000000
   H     54.64000000    74.60000000    35.23000000
   H     57.43000000    72.83000000    32.56000000
   H     55.99000000    76.48000000    35.44000000
   H     58.90000000    74.87000000    32.75000000
   H     58.92000000    76.93000000    33.47000000
   N     52.47000000    70.76000000    31.85000000
   C     51.48000000    69.74000000    31.54000000
   C     50.06000000    70.19000000    31.84000000
   O     49.28000000    70.04000000    30.90000000
   C     51.81000000    68.38000000    32.16000000
   C     53.28000000    68.03000000    31.99000000
   C     50.79000000    67.34000000    31.71000000
   C     53.71000000    67.52000000    30.61000000
   H     52.94000000    71.03000000    31.00000000
   H     51.51000000    69.53000000    30.47000000
   H     51.70000000    68.50000000    33.24000000
   H     53.48000000    67.24000000    32.72000000
   H     53.94000000    68.87000000    32.18000000
   H     50.71000000    67.30000000    30.62000000
   H     51.14000000    66.34000000    31.95000000
   H     49.84000000    67.59000000    32.19000000
   H     53.09000000    66.64000000    30.44000000
   H     53.53000000    68.26000000    29.84000000
   H     54.77000000    67.27000000    30.65000000
   N     49.74000000    70.75000000    33.01000000
   C     48.49000000    71.40000000    33.34000000
   C     47.31000000    70.45000000    33.48000000
   O     46.18000000    70.87000000    33.26000000
   C     48.64000000    72.34000000    34.53000000
   O     49.64000000    73.30000000    34.25000000
   H     50.53000000    70.82000000    33.64000000
   H     48.22000000    72.06000000    32.51000000
   H     48.88000000    71.78000000    35.43000000
   H     47.79000000    73.00000000    34.72000000
   H     49.80000000    73.90000000    34.97000000
   N     47.59000000    69.18000000    33.79000000
   C     46.76000000    68.03000000    33.50000000
   C     45.96000000    68.08000000    32.21000000
   O     44.77000000    67.77000000    32.24000000
   C     45.94000000    67.79000000    34.77000000
   H     48.55000000    68.99000000    34.01000000
   H     47.45000000    67.18000000    33.47000000
   H     45.38000000    66.87000000    34.66000000
   H     46.58000000    67.59000000    35.63000000
   H     45.24000000    68.60000000    34.96000000
   N     46.54000000    68.53000000    31.10000000
   C     45.93000000    68.56000000    29.78000000
   C     46.93000000    68.17000000    28.70000000
   O     48.13000000    68.06000000    28.92000000
   C     45.39000000    69.98000000    29.63000000
   H     47.42000000    69.02000000    31.16000000
   H     45.10000000    67.85000000    29.76000000
   H     46.14000000    70.71000000    29.32000000
   H     44.49000000    70.05000000    29.02000000
   H     45.00000000    70.29000000    30.59000000
   N     46.41000000    67.82000000    27.52000000
   C     47.16000000    67.23000000    26.43000000
   C     47.82000000    65.89000000    26.73000000
   O     48.73000000    65.45000000    26.04000000
   C     48.14000000    68.19000000    25.75000000
   C     47.47000000    69.53000000    25.49000000
   C     48.39000000    70.43000000    24.67000000
   O     49.61000000    70.53000000    24.90000000
   O     47.85000000    71.07000000    23.74000000
   H     45.43000000    67.89000000    27.30000000
   H     46.45000000    67.10000000    25.62000000
   H     48.46000000    67.79000000    24.79000000
   H     48.94000000    68.34000000    26.48000000
   H     47.26000000    70.03000000    26.44000000
   H     46.59000000    69.43000000    24.87000000
   N     47.35000000    65.19000000    27.77000000
   C     47.81000000    63.84000000    28.02000000
   H     48.75500000    63.87300000    28.56200000
   H     47.06900000    63.30800000    28.61600000
   H     47.95400000    63.32300000    27.07100000
   H     46.55000000    65.55000000    28.26000000
  Ca     50.17000000    72.20000000    22.99000000
   O     48.55000000    72.58000000    20.99000000
   H     47.68000000    72.92000000    20.77000000
   H     48.80000000    72.06000000    20.23000000

Ca 1.70



