%chk=Ng-293_loop3_17.0.chk
%nprocshared=48
%mem=10GB
%nosave
#b3lyp/svp scf=(tight,noincore) Test 
#IOP(5/87=12) Density=Current Pop=(MK,readradii) iop(6/33=2) iop(6/42=6)

Ng-293_loop3_17.0 

   0   1
   C     53.85000000    19.67000000    10.86000000
   C     53.42000000    21.07000000    10.47000000
   O     52.86000000    21.27000000     9.39000000
   H     54.78300000    19.72000000    11.42200000
   H     53.07800000    19.21100000    11.47800000
   H     53.99900000    19.07200000     9.96100000
   N     53.57000000    22.03000000    11.39000000
   C     53.25000000    23.41000000    11.06000000
   C     51.84000000    23.71000000    11.55000000
   O     51.28000000    23.11000000    12.46000000
   C     54.29000000    24.28000000    11.76000000
   C     54.16000000    25.65000000    11.11000000
   O     53.44000000    26.52000000    11.65000000
   O     54.87000000    25.87000000    10.11000000
   H     54.14000000    21.84000000    12.21000000
   H     53.39000000    23.63000000    10.01000000
   H     55.23000000    23.80000000    11.50000000
   H     54.15000000    24.20000000    12.84000000
   N     51.22000000    24.68000000    10.87000000
   C     49.96000000    25.34000000    11.13000000
   C     49.73000000    25.99000000    12.48000000
   O     48.93000000    26.92000000    12.56000000
   C     48.86000000    24.46000000    10.54000000
   C     48.98000000    24.11000000     9.06000000
   C     49.64000000    22.78000000     8.74000000
   C     50.55000000    22.75000000     7.52000000
   N     50.97000000    21.38000000     7.16000000
   H     51.88000000    25.27000000    10.38000000
   H     49.84000000    26.25000000    10.54000000
   H     47.93000000    24.99000000    10.73000000
   H     48.88000000    23.57000000    11.17000000
   H     49.60000000    24.87000000     8.58000000
   H     48.01000000    24.15000000     8.55000000
   H     48.78000000    22.13000000     8.58000000
   H     50.24000000    22.42000000     9.57000000
   H     51.40000000    23.39000000     7.76000000
   H     50.06000000    23.21000000     6.66000000
   H     51.68000000    21.43000000     6.45000000
   H     51.44000000    20.92000000     7.92000000
   H     50.12000000    20.90000000     6.90000000
   N     50.29000000    25.52000000    13.60000000
   C     50.28000000    26.09000000    14.93000000
   C     51.67000000    26.54000000    15.34000000
   O     52.64000000    26.09000000    14.73000000
   C     49.73000000    25.05000000    15.89000000
   C     49.45000000    25.62000000    17.28000000
   O     49.34000000    26.86000000    17.34000000
   O     49.15000000    24.98000000    18.31000000
   H     50.89000000    24.72000000    13.49000000
   H     49.61000000    26.95000000    14.98000000
   H     50.43000000    24.22000000    15.98000000
   H     48.75000000    24.70000000    15.55000000
   N     51.76000000    27.35000000    16.40000000
   C     52.93000000    27.98000000    16.98000000
   C     52.61000000    28.59000000    18.33000000
   O     51.69000000    29.41000000    18.44000000
   H     50.95000000    27.51000000    16.97000000
   H     53.20000000    28.84000000    16.37000000
   H     53.75000000    27.27000000    17.09000000
   N     53.30000000    28.10000000    19.36000000
   C     53.02000000    28.21000000    20.78000000
   C     54.23000000    28.66000000    21.57000000
   O     54.24000000    28.39000000    22.77000000
   C     52.45000000    26.90000000    21.31000000
   C     51.31000000    26.35000000    20.47000000
   N     51.69000000    25.48000000    19.53000000
   O     50.14000000    26.71000000    20.56000000
   H     53.92000000    27.33000000    19.14000000
   H     52.26000000    28.98000000    20.95000000
   H     51.93000000    27.17000000    22.23000000
   H     53.27000000    26.20000000    21.49000000
   H     52.55000000    25.00000000    19.76000000
   H     50.98000000    25.03000000    18.97000000
   N     55.17000000    29.40000000    20.98000000
   C     56.07000000    30.24000000    21.74000000
   C     57.03000000    29.46000000    22.64000000
   O     57.70000000    28.54000000    22.18000000
   H     54.98000000    29.62000000    20.02000000
   H     55.47000000    30.89000000    22.38000000
   H     56.69000000    30.77000000    21.02000000
   N     57.10000000    29.94000000    23.88000000
   C     57.69000000    29.19000000    24.97000000
   C     57.07000000    27.87000000    25.41000000
   O     57.55000000    27.25000000    26.36000000
   C     59.21000000    29.13000000    24.84000000
   C     59.99000000    30.40000000    25.11000000
   C     60.50000000    31.15000000    24.05000000
   C     60.30000000    30.71000000    26.44000000
   C     61.31000000    32.25000000    24.37000000
   C     61.16000000    31.77000000    26.73000000
   C     61.73000000    32.52000000    25.69000000
   O     62.59000000    33.56000000    25.94000000
   H     56.55000000    30.73000000    24.17000000
   H     57.55000000    29.81000000    25.85000000
   H     59.52000000    28.85000000    23.83000000
   H     59.61000000    28.35000000    25.49000000
   H     60.23000000    30.97000000    23.02000000
   H     59.89000000    30.06000000    27.20000000
   H     61.69000000    32.88000000    23.59000000
   H     61.33000000    32.11000000    27.74000000
   H     62.80000000    33.58000000    26.87000000
   N     56.12000000    27.37000000    24.62000000
   C     55.44000000    26.09000000    24.74000000
   C     54.49000000    25.89000000    25.91000000
   O     53.46000000    25.26000000    25.70000000
   C     56.42000000    24.95000000    24.46000000
   C     56.96000000    24.95000000    23.03000000
   C     55.83000000    23.57000000    24.74000000
   C     58.47000000    24.76000000    22.87000000
   H     55.72000000    27.98000000    23.92000000
   H     54.77000000    26.11000000    23.89000000
   H     57.20000000    25.16000000    25.19000000
   H     56.69000000    25.89000000    22.56000000
   H     56.43000000    24.15000000    22.52000000
   H     55.00000000    23.33000000    24.08000000
   H     56.63000000    22.83000000    24.68000000
   H     55.55000000    23.55000000    25.79000000
   H     58.82000000    23.84000000    23.34000000
   H     58.68000000    24.63000000    21.80000000
   H     59.11000000    25.53000000    23.27000000
   N     54.93000000    26.32000000    27.09000000
   C     54.20000000    26.48000000    28.33000000
   C     53.68000000    25.18000000    28.92000000
   O     52.85000000    25.25000000    29.82000000
   C     54.94000000    27.39000000    29.31000000
   O     54.90000000    28.74000000    28.88000000
   H     55.85000000    26.71000000    26.95000000
   H     53.31000000    27.02000000    28.02000000
   H     55.98000000    27.07000000    29.37000000
   H     54.34000000    27.31000000    30.22000000
   H     55.76000000    29.16000000    28.91000000
   N     54.13000000    24.01000000    28.44000000
   C     53.59000000    22.70000000    28.70000000
   C     52.08000000    22.58000000    28.56000000
   O     51.43000000    21.80000000    29.26000000
   C     54.12000000    22.09000000    30.00000000
   H     54.91000000    24.02000000    27.79000000
   H     54.06000000    22.12000000    27.90000000
   H     53.89000000    21.03000000    29.98000000
   H     55.20000000    22.22000000    30.09000000
   H     53.63000000    22.59000000    30.83000000
   N     51.50000000    23.37000000    27.65000000
   C     50.08000000    23.45000000    27.37000000
   C     49.79000000    22.57000000    26.16000000
   O     50.71000000    22.34000000    25.38000000
   C     49.65000000    24.90000000    27.18000000
   H     52.10000000    24.00000000    27.15000000
   H     49.48000000    23.04000000    28.19000000
   H     48.60000000    24.91000000    26.91000000
   H     49.89000000    25.35000000    28.15000000
   H     50.25000000    25.30000000    26.36000000
   N     48.53000000    22.20000000    25.91000000
   C     47.90000000    21.60000000    24.75000000
   C     48.46000000    20.21000000    24.53000000
   O     48.48000000    19.77000000    23.38000000
   C     47.95000000    22.47000000    23.50000000
   C     47.38000000    23.88000000    23.56000000
   C     47.48000000    24.58000000    22.21000000
   O     47.98000000    24.00000000    21.22000000
   O     46.98000000    25.71000000    22.05000000
   H     47.99000000    22.60000000    26.66000000
   H     46.85000000    21.47000000    25.03000000
   H     47.35000000    21.90000000    22.78000000
   H     48.98000000    22.59000000    23.16000000
   H     47.98000000    24.48000000    24.25000000
   H     46.31000000    23.76000000    23.74000000
   N     48.87000000    19.46000000    25.56000000
   C     49.67000000    18.26000000    25.41000000
   H     50.61800000    18.38900000    25.93200000
   H     49.13500000    17.41000000    25.83400000
   H     49.86000000    18.07900000    24.35200000
   H     48.78000000    19.91000000    26.46000000
  Ca     47.72000000    26.68000000    19.72000000
   O     45.82000000    28.09000000    20.81000000
   H     45.95000000    28.62000000    21.59000000
   H     44.94000000    28.29000000    20.52000000

Ca 1.70



