%chk=Ng-295_loop3_17.0.chk
%nprocshared=48
%mem=10GB
%nosave
#b3lyp/svp scf=(tight,noincore) Test 
#IOP(5/87=12) Density=Current Pop=(MK,readradii) iop(6/33=2) iop(6/42=6)

Ng-295_loop3_17.0 

   0   1
   C      9.74900000    75.15100000    69.77000000
   C      8.93900000    74.18100000    68.93000000
   O      7.70900000    74.22100000    68.86000000
   H     10.66100000    75.41900000    69.23600000
   H      9.16100000    76.04900000    69.95800000
   H     10.00900000    74.68200000    70.71900000
   N      9.56900000    73.24100000    68.23000000
   C      8.85900000    72.17100000    67.55000000
   C      8.35900000    71.09100000    68.50000000
   O      9.02900000    70.07100000    68.68000000
   C      9.77900000    71.69100000    66.43000000
   C      8.93900000    71.10100000    65.31000000
   O      8.47900000    71.81100000    64.38000000
   O      8.59900000    69.90100000    65.31000000
   H     10.56900000    73.15100000    68.34000000
   H      7.95900000    72.56100000    67.08000000
   H     10.50900000    70.97100000    66.80000000
   H     10.33900000    72.59100000    66.17000000
   N      7.08900000    71.20100000    68.88000000
   C      6.52900000    70.31100000    69.88000000
   C      6.14900000    68.91100000    69.41000000
   O      5.83900000    68.07100000    70.25000000
   C      5.38900000    71.00100000    70.64000000
   C      5.88900000    72.27100000    71.31000000
   C      4.86900000    72.83100000    72.30000000
   C      5.34900000    74.10100000    72.98000000
   N      6.13900000    73.84100000    74.20000000
   H      6.54900000    71.99100000    68.56000000
   H      7.29900000    69.99100000    70.57000000
   H      5.04900000    70.30100000    71.40000000
   H      4.55900000    71.23100000    69.97000000
   H      6.04900000    73.04100000    70.56000000
   H      6.86900000    72.08100000    71.74000000
   H      4.62900000    72.05100000    73.02000000
   H      3.99900000    73.12100000    71.70000000
   H      4.49900000    74.74100000    73.21000000
   H      5.95900000    74.70100000    72.30000000
   H      5.71900000    73.26100000    74.91000000
   H      6.97900000    73.33100000    73.97000000
   H      6.33900000    74.74100000    74.61000000
   N      6.27900000    68.64100000    68.11000000
   C      5.77900000    67.40100000    67.54000000
   C      6.98900000    66.58100000    67.14000000
   O      6.91900000    65.37100000    66.91000000
   C      4.90900000    67.62100000    66.30000000
   C      5.57900000    68.49100000    65.25000000
   O      6.06900000    68.06100000    64.18000000
   O      5.52900000    69.72100000    65.44000000
   H      6.53900000    69.40100000    67.50000000
   H      5.26900000    66.76100000    68.25000000
   H      3.99900000    68.15100000    66.57000000
   H      4.61900000    66.66100000    65.88000000
   N      8.16900000    67.20100000    67.19000000
   C      9.45900000    66.59100000    66.88000000
   C      9.65900000    66.02100000    65.49000000
   O     10.63900000    65.31100000    65.30000000
   H      8.02900000    68.13100000    67.56000000
   H      9.51900000    65.78100000    67.61000000
   H     10.22900000    67.35100000    67.01000000
   N      8.80900000    66.24100000    64.49000000
   C      9.11900000    65.90100000    63.11000000
   C      9.52900000    67.18100000    62.40000000
   O      8.74900000    68.13100000    62.36000000
   C      7.92900000    65.21100000    62.46000000
   C      7.92900000    65.31100000    60.94000000
   N      7.34900000    66.40100000    60.43000000
   O      8.46900000    64.51100000    60.17000000
   H      8.05900000    66.92100000    64.57000000
   H     10.03900000    65.31100000    63.11000000
   H      6.98900000    65.66100000    62.78000000
   H      7.92900000    64.22100000    62.91000000
   H      6.89900000    67.05100000    61.06000000
   H      7.38900000    66.59100000    59.44000000
   N     10.68900000    67.27100000    61.75000000
   C     11.00900000    68.37100000    60.86000000
   C     11.28900000    68.11100000    59.39000000
   O     11.60900000    68.99100000    58.59000000
   H     11.26900000    66.44100000    61.77000000
   H     11.96900000    68.76100000    61.18000000
   H     10.31900000    69.21100000    60.98000000
   N     11.02900000    66.88100000    58.95000000
   C     10.82900000    66.54100000    57.55000000
   C      9.52900000    67.18100000    57.09000000
   O      8.45900000    66.87100000    57.61000000
   C     10.91900000    65.02100000    57.45000000
   C     11.03900000    64.40100000    56.08000000
   C      9.89900000    63.99100000    55.38000000
   C     12.29900000    64.36100000    55.48000000
   C     10.04900000    63.40100000    54.12000000
   C     12.47900000    63.78100000    54.21000000
   C     11.32900000    63.32100000    53.54000000
   O     11.44900000    62.81100000    52.28000000
   H     10.67900000    66.22100000    59.62000000
   H     11.62900000    66.93100000    56.92000000
   H     10.09900000    64.48100000    57.92000000
   H     11.78900000    64.69100000    58.02000000
   H      8.87900000    64.07100000    55.74000000
   H     13.14900000    64.83100000    55.93000000
   H      9.17900000    63.05100000    53.57000000
   H     13.46900000    63.72100000    53.79000000
   H     12.32900000    62.78100000    51.89000000
   N      9.67900000    68.04100000    56.08000000
   C      8.69900000    68.71100000    55.25000000
   C      7.70900000    67.79100000    54.54000000
   O      7.31900000    66.76100000    55.08000000
   C      8.02900000    69.80100000    56.07000000
   C      9.02900000    70.88100000    56.49000000
   C      7.19900000    69.44100000    57.30000000
   C      9.43900000    71.84100000    55.39000000
   H     10.59900000    68.22100000    55.71000000
   H      9.31900000    69.27100000    54.55000000
   H      7.29900000    70.32100000    55.45000000
   H      9.90900000    70.31100000    56.79000000
   H      8.70900000    71.46100000    57.36000000
   H      7.79900000    69.28100000    58.20000000
   H      6.60900000    70.32100000    57.56000000
   H      6.53900000    68.62100000    57.03000000
   H     10.26900000    72.36100000    55.88000000
   H      9.76900000    71.34100000    54.48000000
   H      8.65900000    72.57100000    55.19000000
   N      7.25900000    68.32100000    53.40000000
   C      6.35900000    67.60100000    52.52000000
   C      6.60900000    67.84100000    51.04000000
   O      5.98900000    67.09100000    50.28000000
   C      4.89900000    67.80100000    52.92000000
   O      4.53900000    69.16100000    52.76000000
   H      7.62900000    69.23100000    53.16000000
   H      6.42900000    66.52100000    52.68000000
   H      4.75900000    67.50100000    53.96000000
   H      4.22900000    67.30100000    52.23000000
   H      4.09900000    69.29100000    51.92000000
   N      7.45900000    68.80100000    50.70000000
   C      7.84900000    68.94100000    49.31000000
   C      6.66900000    69.05100000    48.36000000
   O      6.29900000    68.14100000    47.63000000
   C      8.87900000    67.88100000    48.94000000
   H      7.86900000    69.45100000    51.35000000
   H      8.42900000    69.86100000    49.18000000
   H      8.46900000    66.90100000    49.18000000
   H      9.05900000    67.92100000    47.86000000
   H      9.86900000    67.98100000    49.37000000
   N      6.06900000    70.24100000    48.20000000
   C      6.20900000    71.44100000    49.00000000
   C      6.33900000    72.64100000    48.08000000
   O      5.69900000    72.68100000    47.03000000
   C      4.96900000    71.48100000    49.90000000
   H      5.30900000    70.27100000    47.54000000
   H      7.05900000    71.38100000    49.69000000
   H      5.12900000    70.74100000    50.68000000
   H      4.99900000    72.46100000    50.38000000
   H      4.03900000    71.27100000    49.37000000
   N      7.00900000    73.73100000    48.45000000
   C      7.72900000    74.06100000    49.66000000
   C      9.23900000    74.18100000    49.50000000
   O     10.01900000    73.53100000    50.19000000
   C      7.14900000    75.30100000    50.33000000
   C      7.98900000    75.84100000    51.49000000
   C      7.30900000    77.10100000    52.02000000
   O      6.69900000    76.90100000    53.09000000
   O      7.50900000    78.20100000    51.46000000
   H      7.02900000    74.48100000    47.78000000
   H      7.62900000    73.24100000    50.37000000
   H      6.18900000    75.03100000    50.77000000
   H      6.93900000    76.04100000    49.55000000
   H      9.04900000    75.96100000    51.27000000
   H      7.98900000    75.14100000    52.32000000
   N      9.69900000    75.16100000    48.71000000
   C     11.08900000    75.41100000    48.42000000
   H     11.69500000    74.59600000    48.81700000
   H     11.23000000    75.47500000    47.34100000
   H     11.39400000    76.34900000    48.88400000
   H      9.09900000    75.80100000    48.20000000
  Ca      7.00000000    70.17000000    62.94000000
   O      8.43000000    71.51000000    61.18000000
   H      9.37000000    71.37000000    61.04000000
   H      8.19000000    72.17000000    60.53000000

Ca 1.70



