%chk=Ng-293_loop3_54.0.chk
%nprocshared=48
%mem=10GB
%nosave
#b3lyp/svp scf=(tight,noincore) Test 
#IOP(5/87=12) Density=Current Pop=(MK,readradii) iop(6/33=2) iop(6/42=6)

Ng-293_loop3_54.0 

   0   1
   C     24.31000000    75.51000000    76.21000000
   C     23.21000000    75.73000000    75.18000000
   O     22.30000000    74.93000000    74.99000000
   H     25.15100000    76.16700000    75.98900000
   H     23.92700000    75.73400000    77.20500000
   H     24.64100000    74.47200000    76.17300000
   N     23.09000000    76.95000000    74.64000000
   C     22.22000000    77.46000000    73.60000000
   C     20.74000000    77.43000000    73.97000000
   O     20.41000000    77.69000000    75.12000000
   C     22.71000000    78.86000000    73.24000000
   C     21.96000000    79.61000000    72.15000000
   O     22.33000000    80.77000000    71.88000000
   O     21.02000000    79.15000000    71.47000000
   H     23.91000000    77.50000000    74.86000000
   H     22.33000000    76.82000000    72.73000000
   H     23.75000000    78.76000000    72.91000000
   H     22.92000000    79.43000000    74.15000000
   N     19.91000000    77.03000000    73.00000000
   C     18.48000000    76.84000000    72.96000000
   C     17.62000000    78.00000000    73.43000000
   O     16.42000000    77.88000000    73.67000000
   C     18.05000000    75.57000000    73.70000000
   C     18.52000000    74.19000000    73.27000000
   C     17.83000000    72.90000000    73.72000000
   C     18.13000000    71.73000000    72.79000000
   N     19.57000000    71.44000000    72.74000000
   H     20.32000000    76.96000000    72.08000000
   H     18.26000000    76.80000000    71.89000000
   H     16.98000000    75.54000000    73.85000000
   H     18.46000000    75.68000000    74.71000000
   H     19.58000000    74.11000000    73.51000000
   H     18.44000000    74.22000000    72.18000000
   H     16.76000000    72.94000000    73.94000000
   H     18.29000000    72.61000000    74.66000000
   H     17.89000000    71.84000000    71.74000000
   H     17.63000000    70.81000000    73.11000000
   H     19.96000000    72.26000000    72.31000000
   H     19.97000000    71.20000000    73.64000000
   H     19.79000000    70.64000000    72.16000000
   N     18.25000000    79.17000000    73.60000000
   C     17.65000000    80.42000000    74.00000000
   C     18.43000000    81.66000000    73.58000000
   O     19.65000000    81.69000000    73.67000000
   C     17.48000000    80.47000000    75.52000000
   C     16.62000000    81.61000000    76.04000000
   O     17.16000000    82.64000000    76.50000000
   O     15.37000000    81.47000000    76.02000000
   H     19.24000000    79.24000000    73.41000000
   H     16.69000000    80.54000000    73.48000000
   H     18.43000000    80.53000000    76.04000000
   H     17.03000000    79.51000000    75.74000000
   N     17.75000000    82.75000000    73.21000000
   C     18.32000000    84.01000000    72.76000000
   C     18.20000000    85.06000000    73.86000000
   O     17.16000000    85.21000000    74.50000000
   H     16.74000000    82.70000000    73.15000000
   H     17.74000000    84.39000000    71.92000000
   H     19.35000000    83.86000000    72.45000000
   N     19.21000000    85.91000000    74.00000000
   C     19.34000000    86.98000000    74.98000000
   C     20.05000000    88.17000000    74.35000000
   O     20.11000000    89.15000000    75.09000000
   C     20.08000000    86.40000000    76.18000000
   C     19.41000000    85.20000000    76.83000000
   N     20.09000000    84.06000000    76.74000000
   O     18.23000000    85.15000000    77.19000000
   H     19.99000000    85.76000000    73.37000000
   H     18.36000000    87.33000000    75.29000000
   H     20.19000000    87.10000000    77.01000000
   H     21.11000000    86.21000000    75.88000000
   H     20.98000000    83.97000000    76.28000000
   H     19.55000000    83.30000000    77.12000000
   N     20.50000000    88.21000000    73.09000000
   C     20.98000000    89.37000000    72.37000000
   C     21.95000000    90.27000000    73.12000000
   O     23.04000000    89.88000000    73.53000000
   H     20.54000000    87.34000000    72.59000000
   H     20.10000000    89.95000000    72.09000000
   H     21.42000000    89.08000000    71.42000000
   N     21.66000000    91.56000000    73.30000000
   C     22.35000000    92.59000000    74.05000000
   C     22.54000000    92.18000000    75.51000000
   O     23.38000000    92.71000000    76.22000000
   C     23.65000000    92.96000000    73.34000000
   C     23.46000000    93.53000000    71.96000000
   C     23.49000000    92.71000000    70.82000000
   C     23.17000000    94.90000000    71.83000000
   C     23.38000000    93.32000000    69.57000000
   C     22.98000000    95.54000000    70.60000000
   C     23.03000000    94.68000000    69.49000000
   O     22.93000000    95.23000000    68.24000000
   H     20.72000000    91.82000000    73.04000000
   H     21.79000000    93.52000000    74.08000000
   H     24.20000000    92.03000000    73.20000000
   H     24.26000000    93.61000000    73.98000000
   H     23.76000000    91.67000000    70.83000000
   H     22.99000000    95.46000000    72.74000000
   H     23.43000000    92.79000000    68.63000000
   H     22.75000000    96.59000000    70.49000000
   H     22.71000000    96.17000000    68.30000000
   N     21.67000000    91.33000000    76.05000000
   C     21.54000000    91.00000000    77.46000000
   C     21.06000000    92.16000000    78.31000000
   O     20.12000000    92.00000000    79.08000000
   C     22.77000000    90.26000000    77.99000000
   C     23.11000000    89.00000000    77.20000000
   C     22.64000000    89.93000000    79.47000000
   C     24.55000000    88.51000000    77.35000000
   H     20.92000000    90.99000000    75.47000000
   H     20.74000000    90.28000000    77.56000000
   H     23.63000000    90.92000000    77.97000000
   H     22.90000000    89.24000000    76.16000000
   H     22.54000000    88.12000000    77.49000000
   H     22.82000000    90.83000000    80.06000000
   H     21.60000000    89.62000000    79.62000000
   H     23.26000000    89.09000000    79.78000000
   H     25.24000000    89.27000000    76.98000000
   H     24.85000000    88.25000000    78.37000000
   H     24.74000000    87.66000000    76.70000000
   N     21.78000000    93.29000000    78.40000000
   C     21.58000000    94.52000000    79.13000000
   C     21.71000000    94.27000000    80.63000000
   O     21.05000000    95.03000000    81.34000000
   C     22.68000000    95.50000000    78.74000000
   O     22.99000000    95.73000000    77.39000000
   H     22.56000000    93.35000000    77.76000000
   H     20.55000000    94.87000000    79.00000000
   H     23.59000000    95.03000000    79.12000000
   H     22.56000000    96.40000000    79.34000000
   H     23.83000000    96.21000000    77.36000000
   N     22.43000000    93.24000000    81.08000000
   C     22.37000000    92.67000000    82.41000000
   C     21.01000000    92.25000000    82.93000000
   O     20.78000000    92.45000000    84.12000000
   C     23.25000000    93.57000000    83.27000000
   H     23.12000000    92.88000000    80.43000000
   H     22.91000000    91.73000000    82.28000000
   H     24.18000000    93.82000000    82.75000000
   H     22.68000000    94.48000000    83.48000000
   H     23.41000000    93.19000000    84.28000000
   N     20.11000000    91.73000000    82.09000000
   C     18.81000000    91.28000000    82.52000000
   C     18.66000000    89.84000000    82.05000000
   O     19.43000000    89.24000000    81.31000000
   C     17.75000000    92.14000000    81.81000000
   H     20.36000000    91.68000000    81.11000000
   H     18.67000000    91.39000000    83.59000000
   H     17.99000000    93.18000000    82.02000000
   H     17.79000000    91.93000000    80.74000000
   H     16.74000000    91.95000000    82.17000000
   N     17.60000000    89.21000000    82.57000000
   C     17.34000000    87.78000000    82.55000000
   C     18.29000000    86.91000000    83.35000000
   O     18.40000000    85.70000000    83.16000000
   C     17.06000000    87.24000000    81.15000000
   C     16.05000000    86.10000000    81.19000000
   C     15.79000000    85.47000000    79.83000000
   O     15.17000000    86.12000000    78.96000000
   O     16.22000000    84.32000000    79.59000000
   H     16.99000000    89.85000000    83.05000000
   H     16.38000000    87.73000000    83.06000000
   H     17.96000000    86.84000000    80.70000000
   H     16.73000000    88.03000000    80.46000000
   H     15.13000000    86.37000000    81.71000000
   H     16.47000000    85.29000000    81.79000000
   N     19.12000000    87.53000000    84.20000000
   C     20.19000000    86.97000000    85.00000000
   H     21.02900000    87.66500000    85.02100000
   H     19.83400000    86.80000000    86.01600000
   H     20.51300000    86.02400000    84.56500000
   H     18.97000000    88.53000000    84.21000000
  Ca     15.62000000    84.65000000    76.91000000
   O     14.22000000    84.23000000    74.84000000
   H     14.54000000    84.54000000    73.99000000
   H     13.39000000    83.79000000    74.63000000

Ca 1.70



