%chk=Ng-293_loop3_25.0.chk
%nprocshared=48
%mem=10GB
%nosave
#b3lyp/svp scf=(tight,noincore) Test 
#IOP(5/87=12) Density=Current Pop=(MK,readradii) iop(6/33=2) iop(6/42=6)

Ng-293_loop3_25.0 

   0   1
   C     38.89000000    73.27000000    68.02000000
   C     38.45000000    72.14000000    67.10000000
   O     39.22000000    71.81000000    66.20000000
   H     39.78300000    73.74300000    67.61200000
   H     38.09200000    74.00800000    68.09700000
   H     39.11100000    72.86900000    69.00900000
   N     37.22000000    71.64000000    67.27000000
   C     36.43000000    70.83000000    66.36000000
   C     35.91000000    69.58000000    67.06000000
   O     35.73000000    69.50000000    68.27000000
   C     35.50000000    71.83000000    65.68000000
   C     34.67000000    71.28000000    64.53000000
   O     33.68000000    71.92000000    64.12000000
   O     34.87000000    70.18000000    63.98000000
   H     36.69000000    71.91000000    68.08000000
   H     37.11000000    70.51000000    65.57000000
   H     36.18000000    72.57000000    65.25000000
   H     35.01000000    72.49000000    66.39000000
   N     35.66000000    68.55000000    66.25000000
   C     35.17000000    67.22000000    66.57000000
   C     33.77000000    67.26000000    67.16000000
   O     33.26000000    68.32000000    67.50000000
   C     36.08000000    66.45000000    67.52000000
   C     37.41000000    66.08000000    66.86000000
   C     38.38000000    65.29000000    67.73000000
   C     37.84000000    64.05000000    68.43000000
   N     37.35000000    63.09000000    67.44000000
   H     35.62000000    68.77000000    65.26000000
   H     35.10000000    66.75000000    65.59000000
   H     35.57000000    65.57000000    67.91000000
   H     36.28000000    67.02000000    68.43000000
   H     37.96000000    66.93000000    66.46000000
   H     37.20000000    65.39000000    66.04000000
   H     38.80000000    66.08000000    68.35000000
   H     39.24000000    65.03000000    67.10000000
   H     37.01000000    64.35000000    69.07000000
   H     38.56000000    63.68000000    69.17000000
   H     36.61000000    63.47000000    66.86000000
   H     37.98000000    62.81000000    66.70000000
   H     36.89000000    62.31000000    67.89000000
   N     33.21000000    66.05000000    67.18000000
   C     31.98000000    65.81000000    67.90000000
   C     31.99000000    66.07000000    69.40000000
   O     33.02000000    65.84000000    70.04000000
   C     31.58000000    64.34000000    67.74000000
   C     32.49000000    63.23000000    68.22000000
   O     32.34000000    62.74000000    69.36000000
   O     33.28000000    62.72000000    67.39000000
   H     33.73000000    65.38000000    66.63000000
   H     31.19000000    66.40000000    67.45000000
   H     31.36000000    64.09000000    66.71000000
   H     30.63000000    64.20000000    68.27000000
   N     30.78000000    66.33000000    69.91000000
   C     30.36000000    66.52000000    71.28000000
   C     29.03000000    67.24000000    71.47000000
   O     28.50000000    67.90000000    70.58000000
   H     30.02000000    66.33000000    69.25000000
   H     31.17000000    67.08000000    71.75000000
   H     30.27000000    65.58000000    71.83000000
   N     28.46000000    67.06000000    72.67000000
   C     27.40000000    67.85000000    73.26000000
   C     27.44000000    67.86000000    74.79000000
   O     27.86000000    66.85000000    75.34000000
   C     26.05000000    67.30000000    72.81000000
   C     24.79000000    68.04000000    73.23000000
   N     24.03000000    68.64000000    72.31000000
   O     24.43000000    67.99000000    74.40000000
   H     28.86000000    66.41000000    73.32000000
   H     27.51000000    68.87000000    72.91000000
   H     25.96000000    66.26000000    73.11000000
   H     26.05000000    67.17000000    71.73000000
   H     24.40000000    68.57000000    71.37000000
   H     23.22000000    69.17000000    72.59000000
   N     27.04000000    68.95000000    75.44000000
   C     27.07000000    69.14000000    76.88000000
   C     28.45000000    68.98000000    77.50000000
   O     29.47000000    69.05000000    76.81000000
   H     26.77000000    69.74000000    74.87000000
   H     26.31000000    68.54000000    77.37000000
   H     26.74000000    70.16000000    77.09000000
   N     28.46000000    68.49000000    78.74000000
   C     29.61000000    68.15000000    79.55000000
   C     30.59000000    67.16000000    78.93000000
   O     31.67000000    66.92000000    79.45000000
   C     30.30000000    69.41000000    80.05000000
   C     29.45000000    70.36000000    80.85000000
   C     28.52000000    71.26000000    80.32000000
   C     29.37000000    70.10000000    82.23000000
   C     27.65000000    72.01000000    81.12000000
   C     28.62000000    70.92000000    83.09000000
   C     27.82000000    71.93000000    82.51000000
   O     27.10000000    72.70000000    83.38000000
   H     27.56000000    68.33000000    79.18000000
   H     29.17000000    67.54000000    80.34000000
   H     30.77000000    69.97000000    79.24000000
   H     31.08000000    69.05000000    80.72000000
   H     28.61000000    71.40000000    79.25000000
   H     29.96000000    69.36000000    82.74000000
   H     26.98000000    72.70000000    80.61000000
   H     28.77000000    70.82000000    84.15000000
   H     27.46000000    72.68000000    84.27000000
   N     30.17000000    66.55000000    77.81000000
   C     30.87000000    65.63000000    76.94000000
   C     31.08000000    64.23000000    77.50000000
   O     30.97000000    63.25000000    76.76000000
   C     32.13000000    66.32000000    76.42000000
   C     32.06000000    67.74000000    75.86000000
   C     32.91000000    65.44000000    75.45000000
   C     31.16000000    67.79000000    74.63000000
   H     29.33000000    66.91000000    77.40000000
   H     30.18000000    65.52000000    76.10000000
   H     32.79000000    66.37000000    77.29000000
   H     33.07000000    67.94000000    75.50000000
   H     31.79000000    68.48000000    76.62000000
   H     33.24000000    64.50000000    75.87000000
   H     32.27000000    65.28000000    74.58000000
   H     33.77000000    65.99000000    75.05000000
   H     30.19000000    67.34000000    74.84000000
   H     31.01000000    68.85000000    74.45000000
   H     31.66000000    67.21000000    73.86000000
   N     31.42000000    64.10000000    78.78000000
   C     31.40000000    62.88000000    79.58000000
   C     32.59000000    61.95000000    79.37000000
   O     32.40000000    60.78000000    79.07000000
   C     31.13000000    63.24000000    81.03000000
   O     32.21000000    63.96000000    81.60000000
   H     31.59000000    64.89000000    79.38000000
   H     30.51000000    62.32000000    79.31000000
   H     30.91000000    62.28000000    81.50000000
   H     30.22000000    63.84000000    81.11000000
   H     31.93000000    64.13000000    82.50000000
   N     33.79000000    62.53000000    79.52000000
   C     35.08000000    61.89000000    79.46000000
   C     35.42000000    61.14000000    78.18000000
   O     36.22000000    60.20000000    78.22000000
   C     35.31000000    61.11000000    80.76000000
   H     33.72000000    63.43000000    79.97000000
   H     35.87000000    62.64000000    79.38000000
   H     36.11000000    60.37000000    80.76000000
   H     35.69000000    61.81000000    81.50000000
   H     34.38000000    60.65000000    81.09000000
   N     34.79000000    61.51000000    77.06000000
   C     35.01000000    60.88000000    75.78000000
   C     36.25000000    61.39000000    75.05000000
   O     36.40000000    62.61000000    75.03000000
   C     33.75000000    61.09000000    74.95000000
   H     34.15000000    62.29000000    77.13000000
   H     35.15000000    59.82000000    76.00000000
   H     33.57000000    62.16000000    74.80000000
   H     33.83000000    60.56000000    74.01000000
   H     32.95000000    60.66000000    75.55000000
   N     36.91000000    60.52000000    74.29000000
   C     37.76000000    60.74000000    73.13000000
   C     38.97000000    61.61000000    73.45000000
   O     39.61000000    62.09000000    72.52000000
   C     36.86000000    61.07000000    71.94000000
   C     37.36000000    60.68000000    70.55000000
   C     36.17000000    60.61000000    69.60000000
   O     35.80000000    59.48000000    69.22000000
   O     35.63000000    61.65000000    69.17000000
   H     36.72000000    59.56000000    74.52000000
   H     38.16000000    59.75000000    72.92000000
   H     36.55000000    62.11000000    72.02000000
   H     35.99000000    60.44000000    72.13000000
   H     37.85000000    59.70000000    70.59000000
   H     38.07000000    61.45000000    70.25000000
   N     39.36000000    61.84000000    74.71000000
   C     40.15000000    62.97000000    75.14000000
   H     41.07600000    63.00500000    74.56500000
   H     39.58800000    63.89000000    74.97900000
   H     40.38400000    62.86800000    76.20000000
   H     38.89000000    61.32000000    75.44000000
  Ca     33.55000000    60.13000000    67.99000000
   O     35.19000000    60.62000000    66.04000000
   H     35.00000000    59.95000000    65.38000000
   H     35.98000000    61.05000000    65.71000000

Ca 1.70



