%chk=Ng-293_loop3_78.0.chk
%nprocshared=48
%mem=10GB
%nosave
#b3lyp/svp scf=(tight,noincore) Test 
#IOP(5/87=12) Density=Current Pop=(MK,readradii) iop(6/33=2) iop(6/42=6)

Ng-293_loop3_78.0 

   0   1
   C     52.73000000    55.46000000    42.10000000
   C     53.50000000    55.60000000    43.41000000
   O     52.88000000    55.86000000    44.44000000
   H     51.83300000    56.07800000    42.13900000
   H     53.35900000    55.78500000    41.27100000
   H     52.44600000    54.41800000    41.95400000
   N     54.82000000    55.47000000    43.34000000
   C     55.76000000    55.69000000    44.42000000
   C     55.84000000    57.14000000    44.87000000
   O     56.90000000    57.77000000    44.90000000
   C     55.51000000    54.73000000    45.58000000
   C     55.28000000    53.26000000    45.26000000
   O     54.54000000    52.62000000    46.04000000
   O     55.76000000    52.78000000    44.20000000
   H     55.29000000    55.26000000    42.47000000
   H     56.76000000    55.48000000    44.02000000
   H     54.65000000    55.08000000    46.14000000
   H     56.34000000    54.74000000    46.28000000
   N     54.72000000    57.65000000    45.38000000
   C     54.62000000    58.96000000    45.99000000
   C     55.09000000    59.07000000    47.43000000
   O     54.93000000    60.13000000    48.03000000
   C     53.18000000    59.41000000    45.77000000
   C     52.13000000    58.98000000    46.80000000
   C     51.93000000    57.47000000    46.88000000
   C     50.94000000    57.17000000    48.00000000
   N     51.06000000    55.79000000    48.50000000
   H     53.96000000    56.98000000    45.34000000
   H     55.26000000    59.70000000    45.51000000
   H     52.97000000    59.02000000    44.77000000
   H     53.36000000    60.49000000    45.67000000
   H     51.18000000    59.44000000    46.54000000
   H     52.39000000    59.44000000    47.75000000
   H     52.88000000    56.95000000    46.93000000
   H     51.45000000    57.11000000    45.97000000
   H     49.94000000    57.38000000    47.61000000
   H     51.04000000    57.80000000    48.89000000
   H     50.85000000    55.04000000    47.86000000
   H     51.99000000    55.60000000    48.85000000
   H     50.46000000    55.68000000    49.31000000
   N     55.52000000    57.95000000    48.02000000
   C     55.97000000    57.71000000    49.38000000
   C     56.78000000    56.44000000    49.56000000
   O     56.65000000    55.45000000    48.83000000
   C     54.78000000    57.81000000    50.33000000
   C     53.61000000    56.87000000    50.07000000
   O     52.51000000    57.17000000    50.59000000
   O     53.63000000    55.93000000    49.25000000
   H     55.44000000    57.08000000    47.51000000
   H     56.76000000    58.43000000    49.59000000
   H     54.44000000    58.83000000    50.18000000
   H     55.11000000    57.67000000    51.36000000
   N     57.52000000    56.31000000    50.66000000
   C     57.89000000    55.00000000    51.15000000
   C     56.83000000    54.24000000    51.93000000
   O     57.06000000    53.84000000    53.07000000
   H     57.68000000    57.06000000    51.33000000
   H     58.72000000    55.13000000    51.85000000
   H     58.38000000    54.41000000    50.37000000
   N     55.61000000    54.08000000    51.41000000
   C     54.54000000    53.23000000    51.88000000
   C     54.80000000    51.73000000    51.87000000
   O     54.07000000    50.93000000    52.45000000
   C     53.28000000    53.64000000    51.13000000
   C     52.02000000    52.81000000    51.31000000
   N     51.58000000    52.37000000    52.49000000
   O     51.26000000    52.71000000    50.35000000
   H     55.52000000    54.42000000    50.46000000
   H     54.40000000    53.46000000    52.94000000
   H     53.50000000    53.60000000    50.06000000
   H     53.00000000    54.67000000    51.39000000
   H     52.17000000    52.51000000    53.30000000
   H     50.88000000    51.64000000    52.48000000
   N     55.82000000    51.34000000    51.10000000
   C     56.43000000    50.02000000    51.11000000
   C     55.44000000    49.02000000    50.53000000
   O     54.90000000    49.20000000    49.44000000
   H     56.09000000    52.02000000    50.41000000
   H     56.73000000    49.76000000    52.12000000
   H     57.33000000    49.97000000    50.50000000
   N     55.23000000    47.98000000    51.34000000
   C     54.35000000    46.83000000    51.20000000
   C     52.87000000    47.10000000    50.97000000
   O     52.05000000    46.23000000    51.24000000
   C     54.85000000    45.91000000    50.09000000
   C     56.29000000    45.46000000    50.23000000
   C     56.54000000    44.34000000    51.02000000
   C     57.34000000    46.24000000    49.73000000
   C     57.84000000    43.86000000    51.22000000
   C     58.65000000    45.80000000    49.95000000
   C     58.90000000    44.60000000    50.64000000
   O     60.18000000    44.24000000    50.92000000
   H     55.88000000    47.84000000    52.10000000
   H     54.45000000    46.31000000    52.15000000
   H     54.80000000    46.53000000    49.19000000
   H     54.22000000    45.04000000    49.92000000
   H     55.73000000    43.78000000    51.48000000
   H     57.08000000    47.16000000    49.22000000
   H     58.08000000    43.00000000    51.81000000
   H     59.42000000    46.46000000    49.58000000
   H     60.81000000    44.83000000    50.49000000
   N     52.58000000    48.33000000    50.55000000
   C     51.24000000    48.88000000    50.45000000
   C     50.35000000    48.79000000    51.68000000
   O     49.84000000    49.81000000    52.13000000
   C     50.52000000    48.29000000    49.25000000
   C     51.40000000    48.28000000    48.00000000
   C     49.31000000    49.17000000    48.94000000
   C     52.00000000    49.57000000    47.47000000
   H     53.37000000    48.95000000    50.45000000
   H     51.41000000    49.92000000    50.15000000
   H     50.20000000    47.27000000    49.45000000
   H     50.74000000    47.93000000    47.20000000
   H     52.14000000    47.52000000    48.23000000
   H     48.53000000    48.96000000    49.68000000
   H     49.61000000    50.22000000    48.97000000
   H     48.91000000    48.93000000    47.95000000
   H     52.48000000    49.32000000    46.52000000
   H     51.24000000    50.35000000    47.35000000
   H     52.74000000    49.94000000    48.18000000
   N     50.00000000    47.58000000    52.12000000
   C     49.19000000    47.26000000    53.28000000
   C     47.80000000    47.81000000    53.00000000
   O     47.33000000    48.53000000    53.87000000
   C     49.18000000    45.80000000    53.73000000
   O     50.40000000    45.14000000    53.46000000
   H     50.44000000    46.76000000    51.72000000
   H     49.46000000    47.88000000    54.13000000
   H     48.35000000    45.29000000    53.25000000
   H     48.88000000    45.78000000    54.78000000
   H     51.13000000    45.69000000    53.74000000
   N     47.26000000    47.70000000    51.78000000
   C     46.00000000    48.19000000    51.27000000
   C     45.72000000    49.67000000    51.48000000
   O     44.63000000    50.16000000    51.18000000
   C     44.84000000    47.26000000    51.62000000
   H     47.73000000    47.06000000    51.15000000
   H     46.06000000    48.06000000    50.19000000
   H     44.65000000    47.36000000    52.69000000
   H     43.94000000    47.70000000    51.19000000
   H     44.98000000    46.26000000    51.22000000
   N     46.72000000    50.42000000    51.95000000
   C     46.59000000    51.86000000    52.13000000
   C     46.28000000    52.66000000    50.87000000
   O     46.90000000    52.41000000    49.84000000
   C     47.83000000    52.40000000    52.83000000
   H     47.56000000    50.02000000    52.32000000
   H     45.76000000    52.07000000    52.80000000
   H     48.64000000    52.26000000    52.11000000
   H     47.73000000    53.45000000    53.10000000
   H     48.02000000    51.74000000    53.68000000
   N     45.39000000    53.65000000    50.97000000
   C     45.09000000    54.70000000    50.02000000
   C     44.88000000    54.29000000    48.57000000
   O     44.83000000    55.13000000    47.66000000
   C     46.00000000    55.91000000    50.19000000
   C     47.38000000    55.72000000    49.56000000
   C     48.20000000    56.92000000    50.00000000
   O     47.80000000    58.08000000    49.75000000
   O     49.30000000    56.72000000    50.56000000
   H     44.76000000    53.69000000    51.76000000
   H     44.07000000    54.98000000    50.30000000
   H     46.22000000    55.97000000    51.25000000
   H     45.65000000    56.84000000    49.73000000
   H     47.28000000    55.59000000    48.48000000
   H     47.91000000    54.83000000    49.89000000
   N     44.78000000    53.02000000    48.19000000
   C     44.55000000    52.49000000    46.86000000
   H     43.79000000    53.08800000    46.35800000
   H     45.47700000    52.52700000    46.28800000
   H     44.20900000    51.45700000    46.93400000
   H     44.72000000    52.35000000    48.94000000
  Ca     50.84000000    57.68000000    52.58000000
   O     48.22000000    57.63000000    53.06000000
   H     47.47000000    57.61000000    53.65000000
   H     47.83000000    57.62000000    52.18000000

Ca 1.70



