%chk=Ng-293_loop3_23.0.chk
%nprocshared=48
%mem=10GB
%nosave
#b3lyp/svp scf=(tight,noincore) Test 
#IOP(5/87=12) Density=Current Pop=(MK,readradii) iop(6/33=2) iop(6/42=6)

Ng-293_loop3_23.0 

   0   1
   C     38.84000000    11.61000000    97.90000000
   C     38.28000000    12.31000000    96.68000000
   O     37.71000000    11.69000000    95.78000000
   H     39.73700000    12.13000000    98.23600000
   H     38.09600000    11.61700000    98.69700000
   H     39.09100000    10.58000000    97.64600000
   N     38.32000000    13.65000000    96.68000000
   C     37.93000000    14.49000000    95.56000000
   C     36.42000000    14.43000000    95.35000000
   O     35.67000000    14.12000000    96.27000000
   C     38.44000000    15.92000000    95.70000000
   C     38.11000000    16.77000000    94.47000000
   O     37.28000000    17.70000000    94.54000000
   O     38.57000000    16.42000000    93.36000000
   H     38.85000000    14.08000000    97.42000000
   H     38.38000000    14.10000000    94.64000000
   H     39.48000000    15.97000000    95.99000000
   H     37.92000000    16.42000000    96.52000000
   N     36.02000000    14.68000000    94.10000000
   C     34.61000000    14.78000000    93.76000000
   C     33.87000000    15.75000000    94.66000000
   O     32.65000000    15.59000000    94.75000000
   C     34.03000000    13.39000000    93.52000000
   C     34.71000000    12.48000000    92.50000000
   C     34.78000000    13.01000000    91.07000000
   C     34.86000000    12.01000000    89.93000000
   N     34.96000000    12.77000000    88.68000000
   H     36.75000000    15.07000000    93.54000000
   H     34.53000000    15.25000000    92.78000000
   H     32.96000000    13.44000000    93.29000000
   H     34.03000000    12.79000000    94.44000000
   H     34.10000000    11.58000000    92.46000000
   H     35.74000000    12.24000000    92.78000000
   H     35.62000000    13.70000000    91.00000000
   H     33.85000000    13.55000000    90.91000000
   H     34.08000000    11.25000000    89.96000000
   H     35.84000000    11.58000000    90.18000000
   H     35.44000000    13.66000000    88.64000000
   H     35.44000000    12.23000000    87.97000000
   H     34.04000000    12.87000000    88.27000000
   N     34.53000000    16.76000000    95.23000000
   C     34.02000000    17.66000000    96.25000000
   C     34.79000000    18.96000000    96.48000000
   O     35.64000000    19.09000000    97.36000000
   C     33.94000000    16.83000000    97.53000000
   C     33.44000000    17.57000000    98.76000000
   O     32.52000000    18.41000000    98.66000000
   O     33.97000000    17.37000000    99.87000000
   H     35.48000000    16.82000000    94.90000000
   H     33.01000000    17.87000000    95.91000000
   H     34.89000000    16.31000000    97.64000000
   H     33.16000000    16.08000000    97.38000000
   N     34.32000000    20.06000000    95.89000000
   C     34.72000000    21.40000000    96.26000000
   C     33.90000000    22.07000000    97.36000000
   O     32.71000000    21.77000000    97.46000000
   H     33.51000000    20.05000000    95.28000000
   H     34.76000000    21.94000000    95.32000000
   H     35.72000000    21.33000000    96.68000000
   N     34.53000000    22.88000000    98.21000000
   C     33.93000000    23.50000000    99.37000000
   C     34.35000000    24.92000000    99.71000000
   O     33.94000000    25.57000000   100.67000000
   C     34.15000000    22.55000000   100.55000000
   C     33.59000000    21.15000000   100.33000000
   N     34.46000000    20.14000000   100.26000000
   O     32.38000000    20.97000000   100.24000000
   H     35.53000000    23.03000000    98.09000000
   H     32.85000000    23.47000000    99.24000000
   H     33.71000000    22.94000000   101.47000000
   H     35.22000000    22.52000000   100.73000000
   H     35.42000000    20.40000000   100.10000000
   H     34.17000000    19.19000000   100.05000000
   N     35.35000000    25.44000000    98.99000000
   C     36.02000000    26.69000000    99.28000000
   C     36.99000000    26.58000000   100.45000000
   O     37.56000000    25.50000000   100.59000000
   H     35.56000000    25.01000000    98.09000000
   H     35.27000000    27.45000000    99.49000000
   H     36.56000000    27.07000000    98.42000000
   N     36.87000000    27.52000000   101.38000000
   C     37.57000000    27.58000000   102.65000000
   C     37.19000000    26.56000000   103.72000000
   O     37.32000000    26.79000000   104.92000000
   C     39.07000000    27.53000000   102.36000000
   C     39.98000000    27.85000000   103.53000000
   C     39.90000000    29.03000000   104.28000000
   C     40.95000000    26.92000000   103.92000000
   C     40.82000000    29.31000000   105.30000000
   C     41.89000000    27.14000000   104.93000000
   C     41.78000000    28.34000000   105.66000000
   O     42.58000000    28.48000000   106.75000000
   H     36.24000000    28.27000000   101.13000000
   H     37.39000000    28.57000000   103.07000000
   H     39.28000000    28.21000000   101.54000000
   H     39.25000000    26.54000000   101.96000000
   H     39.07000000    29.68000000   104.08000000
   H     40.89000000    25.96000000   103.42000000
   H     40.76000000    30.19000000   105.91000000
   H     42.61000000    26.37000000   105.16000000
   H     43.16000000    27.72000000   106.86000000
   N     36.64000000    25.44000000   103.25000000
   C     35.99000000    24.39000000   104.00000000
   C     34.76000000    24.95000000   104.71000000
   O     33.73000000    24.32000000   104.46000000
   C     36.94000000    23.68000000   104.96000000
   C     38.06000000    22.97000000   104.21000000
   C     36.21000000    22.64000000   105.79000000
   C     39.21000000    22.34000000   105.00000000
   H     36.61000000    25.26000000   102.25000000
   H     35.59000000    23.72000000   103.24000000
   H     37.45000000    24.35000000   105.65000000
   H     38.55000000    23.68000000   103.54000000
   H     37.64000000    22.17000000   103.59000000
   H     36.85000000    22.10000000   106.49000000
   H     35.56000000    23.16000000   106.49000000
   H     35.57000000    22.02000000   105.17000000
   H     39.62000000    23.07000000   105.69000000
   H     38.85000000    21.49000000   105.59000000
   H     40.01000000    22.08000000   104.31000000
   N     34.74000000    25.87000000   105.68000000
   C     33.58000000    26.50000000   106.29000000
   C     32.71000000    25.53000000   107.07000000
   O     31.64000000    25.98000000   107.50000000
   C     34.05000000    27.67000000   107.15000000
   O     35.02000000    28.48000000   106.52000000
   H     35.58000000    26.38000000   105.88000000
   H     32.96000000    26.85000000   105.47000000
   H     34.56000000    27.41000000   108.08000000
   H     33.20000000    28.31000000   107.40000000
   H     35.64000000    28.74000000   107.20000000
   N     33.10000000    24.30000000   107.39000000
   C     32.33000000    23.21000000   107.96000000
   C     31.00000000    22.99000000   107.25000000
   O     29.95000000    22.81000000   107.86000000
   C     32.15000000    23.44000000   109.46000000
   H     34.06000000    24.03000000   107.23000000
   H     32.96000000    22.33000000   107.84000000
   H     33.05000000    23.76000000   109.98000000
   H     31.35000000    24.18000000   109.53000000
   H     31.71000000    22.52000000   109.84000000
   N     31.02000000    22.96000000   105.91000000
   C     30.00000000    22.55000000   104.97000000
   C     29.95000000    21.03000000   104.93000000
   O     30.97000000    20.34000000   104.93000000
   C     30.32000000    23.29000000   103.67000000
   H     31.89000000    23.17000000   105.45000000
   H     28.99000000    22.85000000   105.24000000
   H     29.70000000    23.07000000   102.80000000
   H     30.04000000    24.29000000   103.98000000
   H     31.39000000    23.32000000   103.44000000
   N     28.73000000    20.50000000   104.84000000
   C     28.39000000    19.11000000   104.59000000
   C     28.97000000    18.09000000   105.56000000
   O     29.54000000    17.09000000   105.13000000
   C     28.47000000    18.70000000   103.13000000
   C     27.83000000    19.75000000   102.22000000
   C     27.83000000    19.27000000   100.78000000
   O     28.83000000    19.43000000   100.04000000
   O     26.91000000    18.48000000   100.47000000
   H     27.95000000    21.13000000   104.85000000
   H     27.31000000    19.07000000   104.72000000
   H     27.95000000    17.75000000   103.00000000
   H     29.51000000    18.47000000   102.86000000
   H     28.45000000    20.64000000   102.24000000
   H     26.81000000    19.97000000   102.53000000
   N     28.92000000    18.31000000   106.88000000
   C     29.61000000    17.52000000   107.88000000
   H     30.52200000    18.03500000   108.18300000
   H     28.96400000    17.38600000   108.74800000
   H     29.86500000    16.54600000   107.46200000
   H     28.39000000    19.08000000   107.27000000
  Ca     30.65000000    19.98000000    98.39000000
   O     28.30000000    20.52000000    97.22000000
   H     27.89000000    20.16000000    96.43000000
   H     27.57000000    20.75000000    97.79000000

Ca 1.70



