%chk=Ng-293_loop3_18.0.chk
%nprocshared=48
%mem=10GB
%nosave
#b3lyp/svp scf=(tight,noincore) Test 
#IOP(5/87=12) Density=Current Pop=(MK,readradii) iop(6/33=2) iop(6/42=6)

Ng-293_loop3_18.0 

   0   1
   C     69.48000000    14.49000000    13.64000000
   C     70.06000000    14.94000000    12.30000000
   O     70.60000000    16.04000000    12.25000000
   H     68.46300000    14.12700000    13.49100000
   H     70.09500000    13.69000000    14.05200000
   H     69.46700000    15.33200000    14.33200000
   N     70.08000000    14.08000000    11.28000000
   C     70.67000000    14.14000000     9.96000000
   C     70.30000000    15.32000000     9.08000000
   O     71.16000000    15.72000000     8.31000000
   C     72.18000000    13.95000000    10.12000000
   C     72.64000000    12.85000000    11.06000000
   O     73.26000000    13.12000000    12.11000000
   O     72.56000000    11.67000000    10.65000000
   H     69.58000000    13.23000000    11.51000000
   H     70.26000000    13.29000000     9.41000000
   H     72.61000000    14.91000000    10.42000000
   H     72.58000000    13.70000000     9.14000000
   N     69.08000000    15.87000000     9.06000000
   C     68.57000000    16.73000000     8.00000000
   C     68.71000000    18.22000000     8.24000000
   O     69.08000000    18.92000000     7.30000000
   C     67.13000000    16.41000000     7.62000000
   C     66.77000000    15.00000000     7.14000000
   C     66.98000000    14.99000000     5.63000000
   C     67.03000000    13.61000000     4.99000000
   N     67.47000000    13.86000000     3.61000000
   H     68.36000000    15.50000000     9.66000000
   H     69.11000000    16.53000000     7.08000000
   H     66.80000000    17.15000000     6.89000000
   H     66.42000000    16.64000000     8.42000000
   H     65.75000000    14.71000000     7.38000000
   H     67.51000000    14.30000000     7.54000000
   H     67.83000000    15.58000000     5.30000000
   H     66.15000000    15.59000000     5.24000000
   H     66.06000000    13.12000000     5.09000000
   H     67.78000000    13.00000000     5.50000000
   H     67.52000000    13.00000000     3.08000000
   H     66.85000000    14.51000000     3.15000000
   H     68.40000000    14.24000000     3.55000000
   N     68.45000000    18.69000000     9.46000000
   C     68.57000000    20.09000000     9.83000000
   C     69.00000000    20.34000000    11.27000000
   O     69.59000000    19.44000000    11.86000000
   C     67.30000000    20.85000000     9.47000000
   C     67.57000000    22.21000000     8.84000000
   O     67.92000000    23.13000000     9.62000000
   O     67.32000000    22.43000000     7.64000000
   H     68.10000000    18.09000000    10.20000000
   H     69.33000000    20.49000000     9.16000000
   H     66.75000000    20.98000000    10.40000000
   H     66.72000000    20.22000000     8.80000000
   N     68.99000000    21.59000000    11.72000000
   C     69.47000000    21.97000000    13.04000000
   C     69.34000000    23.47000000    13.27000000
   O     68.95000000    24.23000000    12.38000000
   H     68.63000000    22.29000000    11.08000000
   H     70.50000000    21.66000000    13.21000000
   H     68.90000000    21.41000000    13.77000000
   N     69.64000000    23.89000000    14.50000000
   C     69.44000000    25.29000000    14.83000000
   C     70.69000000    26.06000000    15.23000000
   O     70.69000000    27.20000000    15.68000000
   C     68.37000000    25.34000000    15.92000000
   C     67.23000000    24.34000000    15.81000000
   N     65.96000000    24.72000000    15.95000000
   O     67.44000000    23.14000000    15.95000000
   H     69.82000000    23.20000000    15.21000000
   H     69.07000000    25.86000000    13.97000000
   H     67.92000000    26.33000000    15.95000000
   H     68.84000000    25.09000000    16.87000000
   H     65.70000000    25.69000000    16.10000000
   H     65.23000000    24.02000000    15.96000000
   N     71.89000000    25.53000000    15.00000000
   C     73.17000000    26.19000000    15.10000000
   C     73.47000000    26.66000000    16.52000000
   O     73.27000000    25.89000000    17.46000000
   H     71.86000000    24.62000000    14.57000000
   H     73.05000000    27.12000000    14.55000000
   H     73.96000000    25.53000000    14.73000000
   N     73.91000000    27.89000000    16.80000000
   C     73.94000000    28.41000000    18.15000000
   C     72.59000000    28.69000000    18.79000000
   O     72.40000000    29.39000000    19.78000000
   C     74.84000000    27.74000000    19.19000000
   C     76.27000000    27.70000000    18.72000000
   C     76.67000000    26.70000000    17.83000000
   C     77.18000000    28.70000000    19.10000000
   C     78.00000000    26.68000000    17.40000000
   C     78.49000000    28.72000000    18.62000000
   C     78.91000000    27.69000000    17.76000000
   O     80.21000000    27.67000000    17.34000000
   H     74.06000000    28.59000000    16.09000000
   H     74.50000000    29.34000000    18.17000000
   H     74.47000000    26.73000000    19.36000000
   H     74.86000000    28.29000000    20.14000000
   H     75.93000000    25.94000000    17.63000000
   H     77.02000000    29.39000000    19.92000000
   H     78.28000000    25.83000000    16.79000000
   H     79.30000000    29.37000000    18.91000000
   H     80.74000000    28.40000000    17.68000000
   N     71.48000000    28.18000000    18.25000000
   C     70.11000000    28.17000000    18.73000000
   C     69.55000000    29.58000000    18.64000000
   O     68.99000000    29.96000000    17.61000000
   C     69.92000000    27.33000000    19.99000000
   C     70.40000000    25.91000000    19.70000000
   C     68.43000000    27.34000000    20.35000000
   C     70.52000000    24.98000000    20.91000000
   H     71.63000000    27.60000000    17.44000000
   H     69.58000000    27.55000000    18.00000000
   H     70.52000000    27.81000000    20.76000000
   H     71.42000000    25.91000000    19.33000000
   H     69.75000000    25.52000000    18.91000000
   H     68.08000000    28.34000000    20.59000000
   H     67.82000000    26.94000000    19.54000000
   H     68.26000000    26.73000000    21.23000000
   H     70.87000000    23.98000000    20.68000000
   H     71.24000000    25.38000000    21.63000000
   H     69.54000000    25.00000000    21.39000000
   N     69.62000000    30.44000000    19.66000000
   C     69.28000000    31.84000000    19.58000000
   C     67.80000000    32.14000000    19.43000000
   O     67.36000000    33.17000000    18.90000000
   C     69.76000000    32.56000000    20.84000000
   O     71.06000000    32.19000000    21.24000000
   H     70.18000000    30.08000000    20.42000000
   H     69.84000000    32.27000000    18.75000000
   H     69.18000000    32.41000000    21.75000000
   H     69.75000000    33.64000000    20.68000000
   H     71.68000000    32.11000000    20.51000000
   N     67.01000000    31.17000000    19.89000000
   C     65.59000000    31.10000000    19.61000000
   C     65.25000000    30.70000000    18.18000000
   O     64.09000000    30.86000000    17.80000000
   C     64.87000000    32.35000000    20.11000000
   H     67.43000000    30.39000000    20.37000000
   H     65.23000000    30.27000000    20.22000000
   H     63.82000000    32.10000000    20.29000000
   H     65.31000000    32.81000000    20.99000000
   H     64.85000000    33.07000000    19.29000000
   N     66.21000000    30.36000000    17.32000000
   C     65.96000000    30.01000000    15.93000000
   C     65.32000000    28.66000000    15.62000000
   O     65.76000000    27.65000000    16.16000000
   C     67.25000000    30.22000000    15.14000000
   H     67.19000000    30.42000000    17.55000000
   H     65.27000000    30.67000000    15.40000000
   H     67.75000000    31.15000000    15.37000000
   H     67.93000000    29.38000000    15.24000000
   H     67.04000000    30.19000000    14.07000000
   N     64.29000000    28.61000000    14.76000000
   C     63.89000000    27.38000000    14.11000000
   C     63.13000000    26.35000000    14.94000000
   O     62.79000000    25.24000000    14.53000000
   C     65.00000000    26.71000000    13.31000000
   C     65.51000000    27.49000000    12.10000000
   C     66.67000000    26.69000000    11.52000000
   O     67.85000000    26.99000000    11.80000000
   O     66.46000000    25.78000000    10.68000000
   H     63.79000000    29.44000000    14.47000000
   H     63.11000000    27.68000000    13.41000000
   H     64.64000000    25.77000000    12.90000000
   H     65.89000000    26.50000000    13.89000000
   H     65.74000000    28.53000000    12.35000000
   H     64.67000000    27.45000000    11.41000000
   N     62.77000000    26.73000000    16.16000000
   C     62.52000000    25.72000000    17.18000000
   H     61.49700000    25.35500000    17.08600000
   H     63.21500000    24.89100000    17.04900000
   H     62.65900000    26.15900000    18.16800000
   H     62.84000000    27.69000000    16.45000000
  Ca     69.07000000    25.39000000     9.92000000
   O     67.65000000    25.21000000     7.69000000
   H     67.50000000    25.59000000     6.83000000
   H     67.49000000    24.27000000     7.57000000

Ca 1.70



