%chk=Ng-295_loop3_24.0.chk
%nprocshared=48
%mem=10GB
%nosave
#b3lyp/svp scf=(tight,noincore) Test 
#IOP(5/87=12) Density=Current Pop=(MK,readradii) iop(6/33=2) iop(6/42=6)

Ng-295_loop3_24.0 

   0   1
   C     18.70200000    76.01000000    34.63000000
   C     19.60200000    74.80000000    34.85000000
   O     19.98200000    74.54000000    35.99000000
   H     17.77800000    75.88200000    35.19300000
   H     19.21300000    76.91000000    34.97200000
   H     18.47100000    76.10300000    33.56900000
   N     19.86200000    73.98000000    33.83000000
   C     20.86200000    72.93000000    33.72000000
   C     22.21200000    73.57000000    33.41000000
   O     22.32200000    74.39000000    32.50000000
   C     20.45200000    72.05000000    32.55000000
   C     21.34200000    70.83000000    32.37000000
   O     22.58200000    70.92000000    32.55000000
   O     20.83200000    69.74000000    32.05000000
   H     19.32200000    74.18000000    33.00000000
   H     20.87200000    72.25000000    34.57000000
   H     20.56200000    72.62000000    31.62000000
   H     19.40200000    71.76000000    32.57000000
   N     23.22200000    73.24000000    34.22000000
   C     24.59200000    73.68000000    34.13000000
   C     25.34200000    73.50000000    32.81000000
   O     26.30200000    74.22000000    32.56000000
   C     25.31200000    72.81000000    35.16000000
   C     25.56200000    71.32000000    34.96000000
   C     26.37200000    70.76000000    36.13000000
   C     26.61200000    69.26000000    36.02000000
   N     27.00200000    68.87000000    34.66000000
   H     22.97200000    72.60000000    34.96000000
   H     24.68200000    74.68000000    34.55000000
   H     24.75200000    72.93000000    36.09000000
   H     26.21200000    73.40000000    35.32000000
   H     26.17200000    71.24000000    34.06000000
   H     24.60200000    70.82000000    34.85000000
   H     25.94200000    71.08000000    37.08000000
   H     27.34200000    71.25000000    36.25000000
   H     25.69200000    68.74000000    36.26000000
   H     27.37200000    69.02000000    36.77000000
   H     27.13200000    67.88000000    34.53000000
   H     26.29200000    69.21000000    34.02000000
   H     27.79200000    69.42000000    34.35000000
   N     24.92200000    72.52000000    32.00000000
   C     25.55200000    72.12000000    30.76000000
   C     24.57200000    72.12000000    29.60000000
   O     24.96200000    72.03000000    28.43000000
   C     26.12200000    70.72000000    30.95000000
   C     25.07200000    69.72000000    31.42000000
   O     24.27200000    69.36000000    30.54000000
   O     25.08200000    69.27000000    32.59000000
   H     24.05200000    72.09000000    32.27000000
   H     26.39200000    72.76000000    30.49000000
   H     26.94200000    70.64000000    31.66000000
   H     26.63200000    70.48000000    30.01000000
   N     23.26200000    72.26000000    29.83000000
   C     22.29200000    72.40000000    28.76000000
   C     21.85200000    71.08000000    28.15000000
   O     21.05200000    71.20000000    27.23000000
   H     22.89200000    72.32000000    30.77000000
   H     22.63200000    73.14000000    28.04000000
   H     21.40200000    72.83000000    29.21000000
   N     22.33200000    69.91000000    28.60000000
   C     21.80200000    68.64000000    28.14000000
   C     21.27200000    67.97000000    29.40000000
   O     22.05200000    67.76000000    30.33000000
   C     22.83200000    67.93000000    27.27000000
   C     22.28200000    66.59000000    26.81000000
   N     22.46200000    65.57000000    27.65000000
   O     21.70200000    66.45000000    25.74000000
   H     22.97200000    69.90000000    29.38000000
   H     20.92200000    68.78000000    27.52000000
   H     23.72200000    67.81000000    27.88000000
   H     23.00200000    68.60000000    26.43000000
   H     23.18200000    65.73000000    28.35000000
   H     22.27200000    64.64000000    27.30000000
   N     20.00200000    67.56000000    29.29000000
   C     19.20200000    66.99000000    30.36000000
   C     19.70200000    65.71000000    31.00000000
   O     19.07200000    65.16000000    31.90000000
   H     19.49200000    67.69000000    28.43000000
   H     18.19200000    66.87000000    29.97000000
   H     19.23200000    67.71000000    31.18000000
   N     20.90200000    65.24000000    30.66000000
   C     21.54200000    64.14000000    31.35000000
   C     21.89200000    64.43000000    32.80000000
   O     22.45200000    65.46000000    33.16000000
   C     22.81200000    63.64000000    30.66000000
   C     23.47200000    62.39000000    31.19000000
   C     24.59200000    62.51000000    32.02000000
   C     23.06200000    61.13000000    30.75000000
   C     25.28200000    61.38000000    32.48000000
   C     23.71200000    59.99000000    31.24000000
   C     24.81200000    60.10000000    32.12000000
   O     25.45200000    58.96000000    32.51000000
   H     21.49200000    65.85000000    30.11000000
   H     20.92200000    63.25000000    31.34000000
   H     23.55200000    64.44000000    30.66000000
   H     22.63200000    63.38000000    29.62000000
   H     24.93200000    63.50000000    32.27000000
   H     22.28200000    61.05000000    30.01000000
   H     26.15200000    61.48000000    33.11000000
   H     23.31200000    59.01000000    31.02000000
   H     24.95200000    58.31000000    32.00000000
   N     21.53200000    63.50000000    33.69000000
   C     21.78200000    63.42000000    35.12000000
   C     23.29200000    63.37000000    35.30000000
   O     24.14200000    64.10000000    34.80000000
   C     21.18200000    64.57000000    35.91000000
   C     21.40200000    64.50000000    37.42000000
   C     19.70200000    64.45000000    35.59000000
   C     21.08200000    65.85000000    38.05000000
   H     20.87200000    62.84000000    33.31000000
   H     21.34200000    62.51000000    35.52000000
   H     21.60200000    65.53000000    35.61000000
   H     22.45200000    64.34000000    37.68000000
   H     20.80200000    63.78000000    37.98000000
   H     19.29200000    63.44000000    35.59000000
   H     19.14200000    64.93000000    36.40000000
   H     19.47200000    64.99000000    34.67000000
   H     21.61200000    66.65000000    37.53000000
   H     20.02200000    66.13000000    38.04000000
   H     21.39200000    65.88000000    39.09000000
   N     23.71200000    62.50000000    36.23000000
   C     25.05200000    62.42000000    36.79000000
   C     25.41200000    61.01000000    37.23000000
   O     26.58200000    60.64000000    37.32000000
   C     25.19200000    63.35000000    37.99000000
   O     24.29200000    62.87000000    38.96000000
   H     23.02200000    61.91000000    36.65000000
   H     25.85200000    62.72000000    36.12000000
   H     25.01200000    64.40000000    37.74000000
   H     26.23200000    63.34000000    38.31000000
   H     24.14200000    63.52000000    39.65000000
   N     24.40200000    60.25000000    37.68000000
   C     24.31200000    58.81000000    37.82000000
   C     25.38200000    58.20000000    38.72000000
   O     26.26200000    57.52000000    38.20000000
   C     24.29200000    58.14000000    36.45000000
   H     23.51200000    60.71000000    37.80000000
   H     23.38200000    58.76000000    38.37000000
   H     25.27200000    58.14000000    35.97000000
   H     23.95200000    57.11000000    36.50000000
   H     23.57200000    58.73000000    35.88000000
   N     25.29200000    58.39000000    40.04000000
   C     24.48200000    59.31000000    40.81000000
   C     23.11200000    58.76000000    41.17000000
   O     22.99200000    57.56000000    41.43000000
   C     25.17200000    59.63000000    42.13000000
   H     26.10200000    58.13000000    40.59000000
   H     24.33200000    60.26000000    40.28000000
   H     25.99200000    60.27000000    41.77000000
   H     24.53200000    60.19000000    42.81000000
   H     25.51200000    58.74000000    42.65000000
   N     21.99200000    59.48000000    41.27000000
   C     21.69200000    60.84000000    40.86000000
   C     20.21200000    60.94000000    40.54000000
   O     19.86200000    61.25000000    39.40000000
   C     22.12200000    61.91000000    41.86000000
   C     21.81200000    63.31000000    41.32000000
   C     22.91200000    64.24000000    41.82000000
   O     23.91200000    64.40000000    41.10000000
   O     22.65200000    64.94000000    42.83000000
   H     21.30200000    58.92000000    41.74000000
   H     22.35200000    61.10000000    40.03000000
   H     23.14200000    61.70000000    42.19000000
   H     21.48200000    61.85000000    42.74000000
   H     20.87200000    63.61000000    41.76000000
   H     21.77200000    63.27000000    40.23000000
   N     19.29200000    60.64000000    41.46000000
   C     17.94200000    60.21000000    41.12000000
   H     17.28700000    61.08000000    41.06400000
   H     17.95400000    59.70300000    40.15500000
   H     17.57400000    59.52700000    41.88600000
   H     19.67200000    60.42000000    42.36000000
  Ca     22.86000000    68.20000000    32.92000000
   O     20.37000000    67.55000000    33.69000000
   H     19.59000000    67.09000000    34.01000000
   H     20.04000000    68.39000000    33.38000000

Ca 1.70



