%chk=Ng-31_loop3_32.0.chk
%nprocshared=48
%mem=10GB
%nosave
#b3lyp/svp scf=(tight,noincore) Test 
#IOP(5/87=12) Density=Current Pop=(MK,readradii) iop(6/33=2) iop(6/42=6)

Ng-31_loop3_32.0 

   0   1
   C     64.52000000    65.82000000    32.38000000
   C     64.96000000    65.61000000    33.82000000
   O     64.12000000    65.53000000    34.70000000
   H     63.66300000    66.49300000    32.35700000
   H     65.34000000    66.25600000    31.80900000
   H     64.24000000    64.86200000    31.94100000
   N     66.27000000    65.40000000    34.02000000
   C     66.91000000    65.54000000    35.31000000
   C     66.06000000    65.54000000    36.58000000
   O     65.89000000    64.50000000    37.21000000
   C     67.96000000    66.64000000    35.32000000
   C     67.47000000    68.00000000    34.81000000
   O     67.39000000    68.18000000    33.58000000
   O     67.14000000    68.85000000    35.67000000
   H     66.88000000    65.22000000    33.24000000
   H     67.51000000    64.63000000    35.34000000
   H     68.68000000    66.26000000    34.60000000
   H     68.32000000    66.76000000    36.34000000
   N     65.61000000    66.73000000    36.98000000
   C     64.53000000    66.80000000    37.94000000
   C     65.13000000    66.57000000    39.32000000
   O     66.06000000    67.25000000    39.75000000
   C     63.72000000    68.07000000    37.71000000
   C     62.56000000    68.32000000    38.67000000
   C     62.02000000    69.71000000    38.35000000
   C     61.16000000    70.32000000    39.45000000
   N     60.86000000    71.73000000    39.16000000
   H     65.92000000    67.51000000    36.42000000
   H     63.79000000    66.05000000    37.67000000
   H     63.40000000    68.06000000    36.67000000
   H     64.40000000    68.92000000    37.84000000
   H     63.01000000    68.34000000    39.67000000
   H     61.82000000    67.53000000    38.53000000
   H     61.48000000    69.67000000    37.40000000
   H     62.90000000    70.33000000    38.16000000
   H     61.74000000    70.23000000    40.37000000
   H     60.27000000    69.71000000    39.60000000
   H     60.52000000    72.25000000    39.95000000
   H     61.59000000    72.21000000    38.66000000
   H     60.08000000    71.80000000    38.52000000
   N     64.62000000    65.59000000    40.06000000
   C     65.07000000    65.07000000    41.34000000
   C     65.20000000    63.56000000    41.25000000
   O     64.86000000    62.85000000    42.19000000
   C     64.18000000    65.58000000    42.48000000
   C     62.71000000    65.59000000    42.10000000
   O     61.97000000    64.58000000    42.16000000
   O     62.16000000    66.67000000    41.80000000
   H     63.90000000    65.05000000    39.60000000
   H     66.06000000    65.49000000    41.51000000
   H     64.56000000    66.58000000    42.68000000
   H     64.32000000    65.05000000    43.42000000
   N     65.57000000    63.04000000    40.08000000
   C     65.97000000    61.68000000    39.77000000
   C     67.48000000    61.51000000    39.85000000
   O     68.17000000    62.52000000    39.91000000
   H     65.64000000    63.74000000    39.36000000
   H     65.65000000    61.45000000    38.75000000
   H     65.43000000    61.00000000    40.42000000
   N     68.13000000    60.34000000    39.83000000
   C     67.48000000    59.11000000    39.44000000
   C     68.21000000    58.39000000    38.31000000
   O     69.21000000    57.71000000    38.52000000
   C     67.25000000    58.30000000    40.72000000
   C     66.71000000    56.91000000    40.42000000
   N     66.49000000    56.23000000    41.55000000
   O     66.60000000    56.35000000    39.33000000
   H     69.14000000    60.44000000    39.85000000
   H     66.48000000    59.22000000    39.02000000
   H     66.60000000    58.80000000    41.43000000
   H     68.18000000    58.10000000    41.24000000
   H     66.78000000    56.57000000    42.46000000
   H     66.07000000    55.32000000    41.39000000
   N     67.82000000    58.26000000    37.04000000
   C     66.77000000    59.05000000    36.43000000
   C     65.50000000    58.22000000    36.30000000
   O     64.63000000    58.69000000    35.57000000
   H     68.48000000    57.85000000    36.39000000
   H     67.15000000    59.23000000    35.43000000
   H     66.51000000    59.94000000    37.00000000
   N     65.21000000    57.13000000    37.01000000
   C     63.86000000    56.63000000    37.19000000
   C     63.16000000    57.42000000    38.29000000
   O     63.81000000    57.87000000    39.22000000
   C     63.87000000    55.13000000    37.43000000
   C     63.93000000    54.23000000    36.22000000
   C     62.81000000    53.44000000    36.00000000
   C     65.10000000    54.15000000    35.45000000
   C     62.83000000    52.47000000    34.98000000
   C     65.01000000    53.28000000    34.36000000
   C     63.96000000    52.35000000    34.16000000
   O     63.96000000    51.42000000    33.16000000
   H     65.90000000    56.66000000    37.57000000
   H     63.28000000    56.71000000    36.26000000
   H     63.02000000    54.86000000    38.06000000
   H     64.78000000    54.93000000    38.01000000
   H     61.95000000    53.50000000    36.65000000
   H     65.93000000    54.82000000    35.61000000
   H     61.93000000    51.90000000    34.78000000
   H     65.86000000    53.24000000    33.70000000
   H     64.74000000    51.57000000    32.63000000
   N     61.86000000    57.69000000    38.12000000
   C     61.12000000    58.73000000    38.82000000
   C     60.17000000    58.22000000    39.89000000
   O     59.53000000    57.18000000    39.70000000
   C     60.47000000    59.77000000    37.92000000
   C     61.42000000    60.26000000    36.83000000
   C     59.13000000    59.33000000    37.33000000
   C     61.05000000    61.46000000    35.95000000
   H     61.43000000    57.27000000    37.31000000
   H     61.92000000    59.30000000    39.28000000
   H     60.32000000    60.66000000    38.54000000
   H     61.57000000    59.47000000    36.10000000
   H     62.39000000    60.37000000    37.30000000
   H     58.79000000    60.06000000    36.59000000
   H     59.26000000    58.35000000    36.86000000
   H     58.39000000    59.19000000    38.11000000
   H     60.66000000    62.25000000    36.60000000
   H     61.91000000    61.68000000    35.32000000
   H     60.31000000    61.10000000    35.24000000
   N     60.11000000    58.95000000    41.00000000
   C     59.21000000    58.74000000    42.12000000
   C     57.74000000    58.90000000    41.74000000
   O     57.46000000    59.18000000    40.58000000
   C     59.54000000    57.45000000    42.86000000
   O     60.78000000    57.67000000    43.49000000
   H     60.63000000    59.80000000    41.09000000
   H     59.40000000    59.60000000    42.77000000
   H     59.66000000    56.60000000    42.19000000
   H     58.80000000    57.19000000    43.62000000
   H     61.46000000    57.55000000    42.82000000
   N     56.76000000    58.64000000    42.61000000
   C     55.36000000    58.63000000    42.24000000
   C     54.74000000    60.02000000    42.23000000
   O     55.41000000    61.02000000    42.50000000
   C     54.69000000    57.80000000    43.34000000
   H     57.05000000    58.53000000    43.57000000
   H     55.11000000    58.16000000    41.29000000
   H     53.77000000    57.44000000    42.88000000
   H     55.22000000    56.85000000    43.45000000
   H     54.53000000    58.36000000    44.26000000
   N     53.50000000    60.07000000    41.74000000
   C     52.73000000    61.22000000    41.31000000
   C     53.50000000    62.16000000    40.39000000
   O     53.18000000    63.34000000    40.30000000
   C     52.31000000    61.98000000    42.57000000
   H     53.02000000    59.18000000    41.66000000
   H     51.81000000    60.87000000    40.85000000
   H     51.56000000    62.73000000    42.33000000
   H     51.89000000    61.27000000    43.28000000
   H     53.21000000    62.33000000    43.08000000
   N     54.46000000    61.70000000    39.59000000
   C     55.35000000    62.46000000    38.74000000
   C     55.10000000    62.31000000    37.25000000
   O     55.11000000    63.29000000    36.50000000
   C     56.78000000    62.08000000    39.11000000
   C     57.77000000    63.01000000    38.42000000
   C     58.34000000    63.99000000    39.44000000
   O     59.51000000    64.42000000    39.41000000
   O     57.74000000    64.59000000    40.37000000
   H     54.71000000    60.74000000    39.77000000
   H     55.15000000    63.51000000    38.94000000
   H     57.01000000    61.09000000    38.69000000
   H     56.96000000    62.05000000    40.19000000
   H     57.29000000    63.54000000    37.60000000
   H     58.55000000    62.41000000    37.96000000
   N     54.78000000    61.07000000    36.87000000
   C     54.04000000    60.78000000    35.66000000
   H     53.14200000    61.39600000    35.62800000
   H     54.66200000    60.99900000    34.79200000
   H     53.75800000    59.72700000    35.64900000
   H     54.71000000    60.52000000    37.72000000
  Ca     59.67000000    65.70000000    41.71000000
   O     58.88000000    67.40000000    39.88000000
   H     58.38000000    68.21000000    39.93000000
   H     58.96000000    67.22000000    38.94000000

Ca 1.70



