%chk=Ng-31_loop3_39.0.chk
%nprocshared=48
%mem=10GB
%nosave
#b3lyp/svp scf=(tight,noincore) Test 
#IOP(5/87=12) Density=Current Pop=(MK,readradii) iop(6/33=2) iop(6/42=6)

Ng-31_loop3_39.0 

   0   1
   C     63.47000000    58.60000000    32.32000000
   C     63.99000000    57.80000000    33.50000000
   O     63.27000000    56.87000000    33.86000000
   H     62.58000000    59.15200000    32.62000000
   H     64.23700000    59.30000000    31.98900000
   H     63.21800000    57.92300000    31.50400000
   N     65.24000000    58.06000000    33.91000000
   C     66.04000000    57.17000000    34.73000000
   C     65.46000000    57.03000000    36.14000000
   O     65.18000000    55.92000000    36.59000000
   C     67.55000000    57.37000000    34.80000000
   C     68.04000000    58.80000000    34.99000000
   O     67.51000000    59.82000000    34.50000000
   O     69.02000000    59.01000000    35.74000000
   H     65.68000000    58.90000000    33.60000000
   H     65.90000000    56.23000000    34.20000000
   H     67.96000000    56.94000000    33.89000000
   H     67.91000000    56.86000000    35.70000000
   N     65.16000000    58.20000000    36.70000000
   C     64.33000000    58.15000000    37.89000000
   C     64.90000000    57.34000000    39.04000000
   O     66.10000000    57.31000000    39.26000000
   C     63.99000000    59.60000000    38.26000000
   C     63.04000000    60.19000000    37.23000000
   C     62.89000000    61.68000000    37.53000000
   C     61.53000000    62.23000000    37.11000000
   N     61.40000000    63.66000000    37.45000000
   H     65.44000000    59.08000000    36.28000000
   H     63.41000000    57.63000000    37.62000000
   H     64.90000000    60.18000000    38.41000000
   H     63.45000000    59.56000000    39.20000000
   H     62.06000000    59.75000000    37.40000000
   H     63.25000000    60.13000000    36.16000000
   H     63.62000000    62.14000000    36.86000000
   H     63.16000000    61.93000000    38.56000000
   H     60.73000000    61.64000000    37.56000000
   H     61.37000000    62.14000000    36.04000000
   H     61.95000000    64.18000000    36.78000000
   H     60.44000000    63.94000000    37.31000000
   H     61.74000000    63.74000000    38.39000000
   N     64.01000000    56.80000000    39.89000000
   C     64.37000000    56.04000000    41.07000000
   C     64.44000000    54.53000000    40.87000000
   O     64.40000000    53.75000000    41.81000000
   C     63.50000000    56.48000000    42.25000000
   C     62.01000000    56.19000000    42.15000000
   O     61.55000000    55.04000000    42.34000000
   O     61.24000000    57.16000000    41.96000000
   H     63.03000000    56.86000000    39.65000000
   H     65.38000000    56.38000000    41.26000000
   H     63.65000000    57.54000000    42.45000000
   H     63.84000000    56.04000000    43.18000000
   N     64.96000000    54.17000000    39.70000000
   C     65.31000000    52.83000000    39.25000000
   C     66.68000000    52.40000000    39.75000000
   O     67.31000000    53.01000000    40.61000000
   H     64.97000000    54.89000000    38.99000000
   H     65.51000000    52.80000000    38.18000000
   H     64.47000000    52.17000000    39.43000000
   N     67.29000000    51.30000000    39.28000000
   C     66.67000000    50.17000000    38.62000000
   C     67.69000000    49.25000000    37.95000000
   O     68.51000000    48.68000000    38.67000000
   C     65.89000000    49.41000000    39.69000000
   C     65.33000000    48.05000000    39.28000000
   N     64.53000000    47.41000000    40.12000000
   O     65.56000000    47.44000000    38.24000000
   H     68.24000000    51.20000000    39.62000000
   H     65.93000000    50.61000000    37.95000000
   H     65.10000000    49.89000000    40.26000000
   H     66.60000000    49.16000000    40.48000000
   H     64.47000000    47.90000000    41.00000000
   H     64.26000000    46.45000000    39.93000000
   N     67.57000000    49.04000000    36.64000000
   C     66.92000000    49.92000000    35.69000000
   C     65.42000000    49.76000000    35.44000000
   O     64.85000000    50.49000000    34.64000000
   H     68.20000000    48.34000000    36.28000000
   H     67.36000000    49.86000000    34.70000000
   H     67.12000000    50.96000000    35.93000000
   N     64.68000000    48.81000000    36.02000000
   C     63.25000000    48.68000000    35.87000000
   C     62.78000000    49.71000000    36.89000000
   O     63.50000000    50.08000000    37.82000000
   C     62.81000000    47.22000000    35.99000000
   C     63.55000000    46.26000000    35.10000000
   C     62.84000000    45.86000000    33.95000000
   C     64.87000000    45.85000000    35.31000000
   C     63.36000000    44.90000000    33.08000000
   C     65.41000000    44.92000000    34.41000000
   C     64.64000000    44.38000000    33.36000000
   O     65.38000000    43.65000000    32.48000000
   H     65.11000000    48.29000000    36.77000000
   H     62.82000000    49.10000000    34.96000000
   H     61.75000000    47.18000000    35.75000000
   H     62.83000000    46.87000000    37.02000000
   H     61.81000000    46.16000000    33.80000000
   H     65.40000000    46.17000000    36.20000000
   H     62.79000000    44.69000000    32.18000000
   H     66.41000000    44.56000000    34.59000000
   H     66.22000000    43.33000000    32.83000000
   N     61.53000000    50.15000000    36.78000000
   C     60.93000000    51.19000000    37.60000000
   C     59.90000000    50.68000000    38.59000000
   O     59.09000000    49.81000000    38.28000000
   C     60.35000000    52.36000000    36.80000000
   C     61.44000000    53.06000000    35.99000000
   C     59.08000000    52.06000000    36.01000000
   C     61.07000000    54.37000000    35.30000000
   H     61.02000000    49.78000000    35.99000000
   H     61.70000000    51.69000000    38.19000000
   H     60.04000000    53.13000000    37.50000000
   H     61.88000000    52.43000000    35.22000000
   H     62.26000000    53.28000000    36.68000000
   H     58.24000000    51.60000000    36.54000000
   H     58.74000000    53.01000000    35.59000000
   H     59.44000000    51.40000000    35.23000000
   H     60.28000000    54.27000000    34.57000000
   H     60.67000000    54.94000000    36.14000000
   H     61.92000000    54.90000000    34.88000000
   N     59.92000000    51.21000000    39.82000000
   C     59.17000000    50.66000000    40.93000000
   C     57.65000000    50.53000000    40.87000000
   O     57.03000000    50.75000000    39.84000000
   C     59.79000000    49.34000000    41.36000000
   O     61.20000000    49.23000000    41.39000000
   H     60.47000000    52.04000000    39.97000000
   H     59.33000000    51.26000000    41.83000000
   H     59.36000000    48.66000000    40.62000000
   H     59.32000000    48.99000000    42.28000000
   H     61.72000000    50.03000000    41.44000000
   N     56.96000000    50.25000000    41.98000000
   C     55.51000000    50.28000000    41.86000000
   C     54.84000000    51.63000000    41.72000000
   O     55.18000000    52.56000000    42.45000000
   C     54.90000000    49.49000000    43.01000000
   H     57.36000000    50.05000000    42.88000000
   H     55.14000000    49.69000000    41.01000000
   H     55.29000000    48.48000000    43.11000000
   H     54.99000000    49.94000000    44.00000000
   H     53.82000000    49.36000000    42.89000000
   N     53.81000000    51.74000000    40.87000000
   C     53.09000000    52.98000000    40.66000000
   C     53.89000000    54.13000000    40.05000000
   O     53.48000000    55.29000000    40.15000000
   C     52.19000000    53.29000000    41.85000000
   H     53.48000000    50.94000000    40.35000000
   H     52.49000000    52.54000000    39.87000000
   H     51.66000000    52.41000000    42.20000000
   H     52.81000000    53.74000000    42.62000000
   H     51.42000000    54.01000000    41.58000000
   N     55.05000000    53.77000000    39.49000000
   C     55.82000000    54.66000000    38.64000000
   C     55.29000000    54.59000000    37.22000000
   O     55.33000000    55.66000000    36.60000000
   C     57.30000000    54.39000000    38.86000000
   C     58.14000000    55.47000000    38.17000000
   C     58.24000000    56.65000000    39.13000000
   O     58.84000000    56.56000000    40.22000000
   O     57.56000000    57.68000000    38.93000000
   H     55.39000000    52.83000000    39.65000000
   H     55.61000000    55.70000000    38.90000000
   H     57.49000000    53.48000000    38.28000000
   H     57.65000000    54.15000000    39.86000000
   H     57.72000000    55.65000000    37.18000000
   H     59.15000000    55.07000000    38.13000000
   N     54.83000000    53.44000000    36.73000000
   C     54.19000000    53.34000000    35.43000000
   H     53.29400000    53.96100000    35.41800000
   H     54.87900000    53.68200000    34.65800000
   H     53.91500000    52.30300000    35.23900000
   H     54.78000000    52.63000000    37.33000000
  Ca     58.95000000    56.71000000    42.80000000
   O     60.52000000    56.47000000    44.90000000
   H     60.76000000    57.20000000    45.46000000
   H     60.99000000    55.72000000    45.27000000

Ca 1.70



