%chk=Ng-31_loop3_36.0.chk
%nprocshared=48
%mem=10GB
%nosave
#b3lyp/svp scf=(tight,noincore) Test 
#IOP(5/87=12) Density=Current Pop=(MK,readradii) iop(6/33=2) iop(6/42=6)

Ng-31_loop3_36.0 

   0   1
   C     87.31000000    74.26000000    28.56000000
   C     86.83000000    73.47000000    29.76000000
   O     85.66000000    73.54000000    30.13000000
   H     88.33000000    73.96400000    28.31500000
   H     86.66000000    74.05900000    27.70900000
   H     87.28700000    75.32500000    28.79200000
   N     87.60000000    72.48000000    30.23000000
   C     87.28000000    71.57000000    31.31000000
   C     87.28000000    72.23000000    32.68000000
   O     86.53000000    71.87000000    33.59000000
   C     88.14000000    70.32000000    31.21000000
   C     89.64000000    70.56000000    31.11000000
   O     90.19000000    71.58000000    30.63000000
   O     90.34000000    69.53000000    31.27000000
   H     88.56000000    72.44000000    29.90000000
   H     86.29000000    71.21000000    31.01000000
   H     87.84000000    69.67000000    30.39000000
   H     88.00000000    69.70000000    32.10000000
   N     87.99000000    73.35000000    32.86000000
   C     87.80000000    74.08000000    34.09000000
   C     88.26000000    73.30000000    35.31000000
   O     89.37000000    72.76000000    35.40000000
   C     88.41000000    75.47000000    33.95000000
   C     87.56000000    76.38000000    33.06000000
   C     88.22000000    77.74000000    32.89000000
   C     87.69000000    78.63000000    31.77000000
   N     86.27000000    78.91000000    32.01000000
   H     88.50000000    73.69000000    32.06000000
   H     86.73000000    74.23000000    34.25000000
   H     89.46000000    75.40000000    33.66000000
   H     88.53000000    76.02000000    34.88000000
   H     86.60000000    76.55000000    33.53000000
   H     87.34000000    75.96000000    32.07000000
   H     89.28000000    77.59000000    32.67000000
   H     88.19000000    78.27000000    33.85000000
   H     87.76000000    78.09000000    30.82000000
   H     88.32000000    79.53000000    31.73000000
   H     85.75000000    79.38000000    31.28000000
   H     85.72000000    78.07000000    32.12000000
   H     86.16000000    79.50000000    32.83000000
   N     87.38000000    73.36000000    36.32000000
   C     87.46000000    72.52000000    37.49000000
   C     86.46000000    71.37000000    37.43000000
   O     86.10000000    70.62000000    38.33000000
   C     87.34000000    73.29000000    38.80000000
   C     86.41000000    74.49000000    38.87000000
   O     86.59000000    75.42000000    38.05000000
   O     85.48000000    74.43000000    39.71000000
   H     86.53000000    73.87000000    36.14000000
   H     88.40000000    71.98000000    37.53000000
   H     88.33000000    73.69000000    38.97000000
   H     87.03000000    72.58000000    39.58000000
   N     85.93000000    71.13000000    36.23000000
   C     85.09000000    70.01000000    35.85000000
   C     85.92000000    68.77000000    35.52000000
   O     87.14000000    68.73000000    35.59000000
   H     86.18000000    71.64000000    35.39000000
   H     84.48000000    70.40000000    35.04000000
   H     84.38000000    69.70000000    36.62000000
   N     85.30000000    67.71000000    35.01000000
   C     83.99000000    67.57000000    34.40000000
   C     83.98000000    67.35000000    32.89000000
   O     84.14000000    66.25000000    32.38000000
   C     83.38000000    66.42000000    35.19000000
   C     83.05000000    66.76000000    36.63000000
   N     83.98000000    66.51000000    37.55000000
   O     81.94000000    67.21000000    36.91000000
   H     85.89000000    66.89000000    35.01000000
   H     83.46000000    68.52000000    34.48000000
   H     84.19000000    65.70000000    35.14000000
   H     82.49000000    66.01000000    34.71000000
   H     84.55000000    65.68000000    37.49000000
   H     84.03000000    67.05000000    38.40000000
   N     83.83000000    68.38000000    32.04000000
   C     84.05000000    69.80000000    32.19000000
   C     82.81000000    70.54000000    32.68000000
   O     82.92000000    71.75000000    32.86000000
   H     83.63000000    68.06000000    31.10000000
   H     84.35000000    70.05000000    31.18000000
   H     84.81000000    70.07000000    32.93000000
   N     81.74000000    69.84000000    33.05000000
   C     80.64000000    70.40000000    33.82000000
   C     80.83000000    70.26000000    35.32000000
   O     81.77000000    69.64000000    35.80000000
   C     79.30000000    69.77000000    33.46000000
   C     78.81000000    70.01000000    32.06000000
   C     78.48000000    71.30000000    31.60000000
   C     78.39000000    68.93000000    31.28000000
   C     77.78000000    71.53000000    30.41000000
   C     77.84000000    69.13000000    30.01000000
   C     77.44000000    70.43000000    29.61000000
   O     76.92000000    70.60000000    28.36000000
   H     81.57000000    68.88000000    32.79000000
   H     80.58000000    71.45000000    33.53000000
   H     78.57000000    69.94000000    34.25000000
   H     79.46000000    68.69000000    33.53000000
   H     78.78000000    72.18000000    32.16000000
   H     78.73000000    67.93000000    31.49000000
   H     77.52000000    72.53000000    30.09000000
   H     77.64000000    68.28000000    29.38000000
   H     76.71000000    69.72000000    28.04000000
   N     80.01000000    70.94000000    36.13000000
   C     80.33000000    71.16000000    37.53000000
   C     79.31000000    70.57000000    38.49000000
   O     79.72000000    70.48000000    39.64000000
   C     80.53000000    72.65000000    37.80000000
   C     81.89000000    73.16000000    37.34000000
   C     79.48000000    73.56000000    37.17000000
   C     83.12000000    72.50000000    37.96000000
   H     79.16000000    71.32000000    35.75000000
   H     81.23000000    70.61000000    37.81000000
   H     80.35000000    72.81000000    38.86000000
   H     82.03000000    74.19000000    37.67000000
   H     81.96000000    73.11000000    36.25000000
   H     79.31000000    73.39000000    36.11000000
   H     78.63000000    73.35000000    37.81000000
   H     79.78000000    74.60000000    37.34000000
   H     83.99000000    73.05000000    37.60000000
   H     83.14000000    72.61000000    39.04000000
   H     83.22000000    71.44000000    37.74000000
   N     78.13000000    70.10000000    38.08000000
   C     77.27000000    69.30000000    38.92000000
   C     76.49000000    70.17000000    39.90000000
   O     76.13000000    71.26000000    39.47000000
   C     76.41000000    68.42000000    38.02000000
   O     75.86000000    67.38000000    38.80000000
   H     77.75000000    70.32000000    37.17000000
   H     77.85000000    68.57000000    39.48000000
   H     76.96000000    68.02000000    37.16000000
   H     75.63000000    69.01000000    37.54000000
   H     76.43000000    66.72000000    39.19000000
   N     76.25000000    69.77000000    41.15000000
   C     75.42000000    70.51000000    42.07000000
   C     76.13000000    71.60000000    42.86000000
   O     77.32000000    71.60000000    43.17000000
   C     74.85000000    69.45000000    43.02000000
   H     76.61000000    68.88000000    41.47000000
   H     74.65000000    70.98000000    41.45000000
   H     74.15000000    69.83000000    43.76000000
   H     74.29000000    68.81000000    42.34000000
   H     75.60000000    68.71000000    43.30000000
   N     75.36000000    72.59000000    43.31000000
   C     75.71000000    73.59000000    44.30000000
   C     76.85000000    74.56000000    43.98000000
   O     77.34000000    75.18000000    44.93000000
   C     75.80000000    72.94000000    45.67000000
   H     74.38000000    72.41000000    43.15000000
   H     74.82000000    74.22000000    44.26000000
   H     76.07000000    73.68000000    46.43000000
   H     74.88000000    72.43000000    45.95000000
   H     76.58000000    72.18000000    45.72000000
   N     77.20000000    74.83000000    42.73000000
   C     78.23000000    75.81000000    42.43000000
   C     77.78000000    76.78000000    41.35000000
   O     78.34000000    77.87000000    41.34000000
   C     79.47000000    75.05000000    41.97000000
   C     80.54000000    76.08000000    41.64000000
   C     81.91000000    75.45000000    41.80000000
   O     82.90000000    75.97000000    42.37000000
   O     82.14000000    74.38000000    41.19000000
   H     76.76000000    74.32000000    41.97000000
   H     78.40000000    76.38000000    43.34000000
   H     79.24000000    74.38000000    41.13000000
   H     79.80000000    74.44000000    42.81000000
   H     80.50000000    76.78000000    42.48000000
   H     80.38000000    76.57000000    40.68000000
   N     76.67000000    76.51000000    40.67000000
   C     76.22000000    77.32000000    39.56000000
   H     75.33700000    77.88600000    39.85800000
   H     77.01200000    78.01000000    39.26900000
   H     75.97000000    76.67600000    38.71700000
   H     76.22000000    75.63000000    40.89000000
  Ca     84.50000000    73.85000000    42.03000000
   O     83.54000000    71.87000000    43.31000000
   H     83.39000000    71.07000000    42.82000000
   H     84.02000000    71.59000000    44.09000000

Ca 1.70



