%chk=Ng-31_loop3_28.0.chk
%nprocshared=48
%mem=10GB
%nosave
#b3lyp/svp scf=(tight,noincore) Test 
#IOP(5/87=12) Density=Current Pop=(MK,readradii) iop(6/33=2) iop(6/42=6)

Ng-31_loop3_28.0 

   0   1
   C     85.27000000    71.42000000    28.47000000
   C     84.52000000    70.68000000    29.58000000
   O     83.38000000    70.91000000    29.99000000
   H     86.26500000    70.99000000    28.35500000
   H     84.72200000    71.32200000    27.53300000
   H     85.35900000    72.47500000    28.73100000
   N     85.20000000    69.63000000    30.02000000
   C     84.78000000    68.72000000    31.07000000
   C     85.17000000    69.12000000    32.48000000
   O     84.61000000    68.77000000    33.52000000
   C     85.20000000    67.27000000    30.85000000
   C     86.64000000    67.01000000    30.43000000
   O     87.46000000    67.96000000    30.48000000
   O     86.93000000    65.81000000    30.23000000
   H     86.16000000    69.59000000    29.71000000
   H     83.69000000    68.77000000    31.10000000
   H     84.64000000    66.86000000    30.01000000
   H     84.93000000    66.63000000    31.69000000
   N     86.13000000    70.04000000    32.56000000
   C     86.54000000    70.65000000    33.81000000
   C     87.19000000    69.70000000    34.80000000
   O     87.89000000    68.78000000    34.40000000
   C     87.23000000    72.00000000    33.66000000
   C     86.41000000    73.07000000    32.92000000
   C     86.96000000    74.47000000    33.20000000
   C     86.32000000    75.48000000    32.25000000
   N     84.94000000    75.79000000    32.64000000
   H     86.55000000    70.32000000    31.68000000
   H     85.57000000    70.94000000    34.24000000
   H     88.13000000    71.84000000    33.07000000
   H     87.55000000    72.43000000    34.60000000
   H     85.40000000    73.06000000    33.32000000
   H     86.38000000    72.85000000    31.85000000
   H     88.01000000    74.52000000    32.92000000
   H     86.67000000    74.65000000    34.23000000
   H     86.31000000    75.14000000    31.21000000
   H     86.94000000    76.38000000    32.30000000
   H     84.61000000    76.53000000    32.04000000
   H     84.30000000    75.02000000    32.55000000
   H     84.87000000    76.05000000    33.62000000
   N     86.99000000    69.95000000    36.10000000
   C     87.31000000    69.07000000    37.21000000
   C     86.18000000    68.13000000    37.58000000
   O     86.21000000    67.58000000    38.68000000
   C     87.80000000    69.98000000    38.33000000
   C     86.78000000    70.94000000    38.93000000
   O     86.26000000    71.91000000    38.34000000
   O     86.33000000    70.67000000    40.07000000
   H     86.48000000    70.79000000    36.34000000
   H     88.17000000    68.53000000    36.81000000
   H     88.49000000    70.68000000    37.86000000
   H     88.30000000    69.37000000    39.08000000
   N     85.23000000    67.87000000    36.68000000
   C     84.29000000    66.77000000    36.74000000
   C     84.87000000    65.44000000    36.30000000
   O     86.10000000    65.31000000    36.30000000
   H     85.24000000    68.34000000    35.78000000
   H     83.45000000    67.03000000    36.10000000
   H     83.90000000    66.60000000    37.75000000
   N     84.07000000    64.40000000    36.06000000
   C     82.64000000    64.32000000    35.84000000
   C     82.30000000    63.59000000    34.55000000
   O     82.25000000    62.36000000    34.59000000
   C     81.99000000    63.75000000    37.09000000
   C     82.26000000    64.59000000    38.34000000
   N     83.10000000    64.09000000    39.25000000
   O     81.71000000    65.67000000    38.52000000
   H     84.53000000    63.52000000    35.84000000
   H     82.20000000    65.31000000    35.71000000
   H     82.39000000    62.74000000    37.18000000
   H     80.92000000    63.65000000    36.98000000
   H     83.43000000    63.14000000    39.14000000
   H     83.32000000    64.56000000    40.11000000
   N     82.13000000    64.25000000    33.40000000
   C     82.34000000    65.66000000    33.15000000
   C     81.24000000    66.66000000    33.46000000
   O     81.51000000    67.77000000    33.92000000
   H     81.93000000    63.75000000    32.55000000
   H     82.51000000    65.75000000    32.07000000
   H     83.30000000    65.96000000    33.57000000
   N     79.96000000    66.28000000    33.46000000
   C     78.85000000    66.91000000    34.15000000
   C     78.93000000    66.53000000    35.62000000
   O     79.44000000    65.50000000    36.03000000
   C     77.47000000    66.83000000    33.51000000
   C     77.24000000    67.56000000    32.20000000
   C     77.59000000    68.91000000    32.12000000
   C     76.80000000    66.89000000    31.06000000
   C     77.60000000    69.51000000    30.86000000
   C     76.73000000    67.53000000    29.82000000
   C     77.14000000    68.87000000    29.69000000
   O     77.02000000    69.50000000    28.48000000
   H     79.68000000    65.40000000    33.05000000
   H     79.09000000    67.97000000    34.19000000
   H     76.79000000    67.23000000    34.26000000
   H     77.17000000    65.80000000    33.31000000
   H     77.98000000    69.35000000    33.03000000
   H     76.47000000    65.86000000    31.09000000
   H     77.90000000    70.53000000    30.64000000
   H     76.25000000    66.99000000    29.01000000
   H     76.59000000    68.97000000    27.81000000
   N     78.35000000    67.38000000    36.48000000
   C     78.86000000    67.48000000    37.83000000
   C     77.87000000    67.13000000    38.94000000
   O     78.37000000    66.93000000    40.04000000
   C     79.62000000    68.78000000    38.06000000
   C     80.77000000    68.96000000    37.08000000
   C     78.64000000    69.94000000    37.86000000
   C     81.92000000    69.76000000    37.69000000
   H     77.86000000    68.16000000    36.07000000
   H     79.66000000    66.74000000    37.96000000
   H     80.00000000    68.79000000    39.08000000
   H     80.44000000    69.35000000    36.12000000
   H     81.25000000    67.99000000    36.93000000
   H     78.13000000    69.95000000    36.89000000
   H     77.77000000    69.92000000    38.52000000
   H     79.14000000    70.90000000    37.88000000
   H     82.18000000    69.39000000    38.69000000
   H     82.88000000    69.76000000    37.17000000
   H     81.53000000    70.77000000    37.76000000
   N     76.55000000    67.14000000    38.73000000
   C     75.63000000    66.79000000    39.80000000
   C     75.37000000    68.02000000    40.65000000
   O     74.94000000    69.07000000    40.16000000
   C     74.28000000    66.37000000    39.23000000
   O     74.29000000    65.04000000    38.74000000
   H     76.19000000    67.40000000    37.83000000
   H     76.15000000    66.04000000    40.40000000
   H     73.98000000    67.01000000    38.40000000
   H     73.50000000    66.42000000    39.99000000
   H     73.91000000    65.08000000    37.86000000
   N     75.58000000    67.92000000    41.97000000
   C     75.21000000    68.96000000    42.91000000
   C     76.36000000    69.76000000    43.51000000
   O     77.48000000    69.26000000    43.52000000
   C     74.33000000    68.32000000    43.98000000
   H     76.01000000    67.07000000    42.31000000
   H     74.63000000    69.67000000    42.33000000
   H     73.41000000    67.85000000    43.63000000
   H     74.96000000    67.54000000    44.41000000
   H     74.07000000    69.03000000    44.76000000
   N     76.12000000    70.99000000    43.97000000
   C     77.16000000    71.80000000    44.56000000
   C     78.32000000    72.22000000    43.67000000
   O     79.44000000    72.41000000    44.13000000
   C     77.47000000    71.30000000    45.97000000
   H     75.23000000    71.43000000    43.80000000
   H     76.52000000    72.67000000    44.70000000
   H     78.08000000    70.39000000    45.97000000
   H     78.00000000    72.11000000    46.47000000
   H     76.60000000    71.12000000    46.61000000
   N     78.02000000    72.39000000    42.39000000
   C     79.03000000    72.63000000    41.38000000
   C     78.67000000    73.65000000    40.30000000
   O     79.55000000    74.21000000    39.65000000
   C     79.49000000    71.32000000    40.76000000
   C     80.30000000    70.35000000    41.63000000
   C     81.73000000    70.78000000    41.94000000
   O     82.38000000    71.40000000    41.07000000
   O     82.36000000    70.36000000    42.93000000
   H     77.14000000    71.94000000    42.15000000
   H     79.93000000    73.00000000    41.88000000
   H     80.15000000    71.54000000    39.93000000
   H     78.67000000    70.79000000    40.29000000
   H     80.30000000    69.41000000    41.07000000
   H     79.80000000    70.13000000    42.57000000
   N     77.37000000    73.83000000    40.04000000
   C     76.84000000    74.77000000    39.08000000
   H     75.93500000    75.22600000    39.48100000
   H     77.58000000    75.54500000    38.88300000
   H     76.60300000    74.24800000    38.15300000
   H     76.73000000    73.35000000    40.66000000
  Ca     84.74000000    71.25000000    42.13000000
   O     86.53000000    73.08000000    42.88000000
   H     86.28000000    73.90000000    43.31000000
   H     87.39000000    72.87000000    43.24000000

Ca 1.70



