%chk=Ng-31_loop3_11.0.chk
%nprocshared=48
%mem=10GB
%nosave
#b3lyp/svp scf=(tight,noincore) Test 
#IOP(5/87=12) Density=Current Pop=(MK,readradii) iop(6/33=2) iop(6/42=6)

Ng-31_loop3_11.0 

   0   1
   C      0.97800000    48.03000000     5.31800000
   C      2.42800000    48.15000000     4.86800000
   O      3.04800000    47.15000000     4.49800000
   H      0.33900000    47.88200000     4.44700000
   H      0.87500000    47.17900000     5.99200000
   H      0.68100000    48.94200000     5.83600000
   N      2.97800000    49.37000000     4.87800000
   C      4.33800000    49.83000000     4.65800000
   C      5.27800000    49.29000000     5.71800000
   O      4.89800000    49.01000000     6.85800000
   C      4.35800000    51.36000000     4.60800000
   C      3.64800000    51.96000000     5.80800000
   O      4.38800000    52.55000000     6.61800000
   O      2.39800000    51.91000000     5.84800000
   H      2.39800000    50.10000000     5.25800000
   H      4.69800000    49.49000000     3.69800000
   H      3.83800000    51.60000000     3.67800000
   H      5.37800000    51.75000000     4.62800000
   N      6.55800000    49.26000000     5.33800000
   C      7.72800000    49.19000000     6.19800000
   C      8.64800000    48.00000000     5.93800000
   O      9.62800000    47.82000000     6.64800000
   C      8.59800000    50.45000000     6.13800000
   C      7.78800000    51.65000000     6.60800000
   C      7.33800000    51.53000000     8.05800000
   C      6.85800000    52.88000000     8.58800000
   N      6.79800000    52.83000000    10.05800000
   H      6.78800000    49.42000000     4.36800000
   H      7.38800000    49.03000000     7.21800000
   H      8.96800000    50.72000000     5.14800000
   H      9.41800000    50.31000000     6.83800000
   H      7.04800000    51.86000000     5.83800000
   H      8.45800000    52.52000000     6.60800000
   H      8.12800000    51.10000000     8.67800000
   H      6.50800000    50.83000000     8.05800000
   H      5.84800000    53.08000000     8.22800000
   H      7.50800000    53.70000000     8.30800000
   H      6.35800000    53.67000000    10.39800000
   H      6.24800000    52.10000000    10.46800000
   H      7.73800000    52.76000000    10.41800000
   N      8.26800000    47.19000000     4.94800000
   C      8.93800000    45.95000000     4.60800000
   C      9.74800000    46.01000000     3.32800000
   O     10.15800000    44.99000000     2.78800000
   C      7.91800000    44.81000000     4.59800000
   C      6.78800000    44.99000000     3.60800000
   O      6.09800000    43.99000000     3.27800000
   O      6.43800000    46.07000000     3.07800000
   H      7.38800000    47.32000000     4.47800000
   H      9.72800000    45.74000000     5.33800000
   H      7.45800000    44.64000000     5.57800000
   H      8.46800000    43.92000000     4.29800000
   N      9.85800000    47.17000000     2.66800000
   C     10.64800000    47.32000000     1.45800000
   C     11.04800000    48.72000000     1.04800000
   O     11.41800000    49.49000000     1.93800000
   H      9.39800000    48.01000000     2.95800000
   H     10.06800000    46.89000000     0.63800000
   H     11.50800000    46.70000000     1.69800000
   N     11.05800000    49.13000000    -0.23200000
   C     10.77800000    48.39000000    -1.44200000
   C      9.32800000    48.43000000    -1.89200000
   O      8.69800000    49.49000000    -1.80200000
   C     11.65800000    48.94000000    -2.56200000
   C     13.14800000    48.75000000    -2.32200000
   N     13.65800000    47.70000000    -1.67200000
   O     13.95800000    49.63000000    -2.61200000
   H     11.33800000    50.07000000    -0.46200000
   H     11.04800000    47.34000000    -1.28200000
   H     11.46800000    49.96000000    -2.88200000
   H     11.40800000    48.42000000    -3.48200000
   H     13.02800000    46.92000000    -1.52200000
   H     14.61800000    47.68000000    -1.35200000
   N      8.65800000    47.34000000    -2.25200000
   C      9.21800000    46.00000000    -2.32200000
   C      8.22800000    44.86000000    -2.20200000
   O      7.23800000    44.99000000    -1.47200000
   H      7.66800000    47.53000000    -2.29200000
   H      9.85800000    45.84000000    -1.45200000
   H      9.73800000    46.00000000    -3.28200000
   N      8.47800000    43.69000000    -2.79200000
   C      7.69800000    42.48000000    -2.58200000
   C      8.69800000    41.34000000    -2.50200000
   O      9.40800000    41.13000000    -3.47200000
   C      6.68800000    42.31000000    -3.71200000
   C      5.62800000    43.36000000    -3.93200000
   C      4.47800000    43.24000000    -3.15200000
   C      5.66800000    44.30000000    -4.96200000
   C      3.34800000    44.03000000    -3.36200000
   C      4.58800000    45.17000000    -5.15200000
   C      3.43800000    45.04000000    -4.35200000
   O      2.43800000    45.96000000    -4.50200000
   H      9.28800000    43.71000000    -3.39200000
   H      7.17800000    42.54000000    -1.63200000
   H      6.17800000    41.35000000    -3.57200000
   H      7.22800000    42.21000000    -4.66200000
   H      4.34800000    42.37000000    -2.51200000
   H      6.58800000    44.43000000    -5.52200000
   H      2.41800000    43.97000000    -2.82200000
   H      4.68800000    45.95000000    -5.88200000
   H      2.68800000    46.41000000    -5.31200000
   N      8.51800000    40.43000000    -1.53200000
   C      9.20800000    39.16000000    -1.60200000
   C      8.57800000    38.22000000    -2.63200000
   O      9.24800000    37.36000000    -3.19200000
   C      9.44800000    38.55000000    -0.22200000
   C      8.37800000    37.53000000     0.16800000
   C     10.85800000    38.01000000    -0.04200000
   C      8.20800000    37.48000000     1.67800000
   H      7.72800000    40.63000000    -0.94200000
   H     10.20800000    39.31000000    -1.99200000
   H      9.33800000    39.40000000     0.45800000
   H      8.75800000    36.58000000    -0.21200000
   H      7.37800000    37.65000000    -0.25200000
   H     10.97800000    37.22000000    -0.79200000
   H     11.46800000    38.88000000    -0.28200000
   H     10.96800000    37.67000000     0.98800000
   H      9.06800000    37.00000000     2.15800000
   H      7.98800000    38.45000000     2.10800000
   H      7.36800000    36.81000000     1.85800000
   N      7.25800000    38.25000000    -2.85200000
   C      6.56800000    37.55000000    -3.91200000
   C      5.72800000    36.36000000    -3.47200000
   O      5.08800000    35.80000000    -4.36200000
   C      5.79800000    38.71000000    -4.55200000
   O      4.67800000    38.94000000    -3.73200000
   H      6.78800000    39.02000000    -2.40200000
   H      7.29800000    37.21000000    -4.65200000
   H      5.60800000    38.26000000    -5.52200000
   H      6.47800000    39.56000000    -4.64200000
   H      4.96800000    39.38000000    -2.93200000
   N      5.71800000    35.91000000    -2.22200000
   C      4.93800000    34.76000000    -1.80200000
   C      4.30800000    34.93000000    -0.42200000
   O      4.97800000    35.23000000     0.55800000
   C      5.81800000    33.52000000    -1.85200000
   H      6.35800000    36.36000000    -1.58200000
   H      4.14800000    34.64000000    -2.53200000
   H      6.59800000    33.67000000    -1.11200000
   H      5.18800000    32.68000000    -1.55200000
   H      6.34800000    33.31000000    -2.79200000
   N      3.04800000    34.56000000    -0.20200000
   C      2.28800000    34.75000000     1.01800000
   C      2.44800000    36.11000000     1.68800000
   O      2.36800000    36.20000000     2.91800000
   C      2.52800000    33.54000000     1.91800000
   H      2.64800000    33.98000000    -0.93200000
   H      1.24800000    34.68000000     0.70800000
   H      1.89800000    33.49000000     2.79800000
   H      2.36800000    32.70000000     1.24800000
   H      3.56800000    33.68000000     2.22800000
   N      2.59800000    37.22000000     0.95800000
   C      2.36800000    38.59000000     1.36800000
   C      0.87800000    38.86000000     1.27800000
   O      0.20800000    38.98000000     2.30800000
   C      3.17800000    39.56000000     0.50800000
   C      4.68800000    39.41000000     0.64800000
   C      5.39800000    40.31000000    -0.34200000
   O      5.85800000    41.39000000     0.07800000
   O      5.53800000    39.96000000    -1.53200000
   H      2.63800000    37.09000000    -0.04200000
   H      2.69800000    38.64000000     2.40800000
   H      2.88800000    40.55000000     0.85800000
   H      2.86800000    39.54000000    -0.54200000
   H      4.98800000    38.39000000     0.41800000
   H      4.89800000    39.69000000     1.68800000
   N      0.31800000    38.93000000     0.06800000
   C     -1.02200000    39.36000000    -0.27200000
   H     -1.67400000    39.23200000     0.59200000
   H     -1.00500000    40.41100000    -0.56100000
   H     -1.39700000    38.76100000    -1.10200000
   H      0.93800000    38.70000000    -0.70200000
  Ca      3.85000000    45.31000000     2.42000000
   O      4.27000000    47.79000000     1.54000000
   H      4.10000000    48.73000000     1.60000000
   H      4.85000000    47.69000000     0.79000000

Ca 1.70



