%chk=Ng-31_loop3_49.0.chk
%nprocshared=48
%mem=10GB
%nosave
#b3lyp/svp scf=(tight,noincore) Test 
#IOP(5/87=12) Density=Current Pop=(MK,readradii) iop(6/33=2) iop(6/42=6)

Ng-31_loop3_49.0 

   0   1
   C     89.19000000    74.46000000    27.90000000
   C     88.51000000    73.96000000    29.17000000
   O     87.57000000    74.61000000    29.60000000
   H     90.19800000    74.04800000    27.84200000
   H     88.61700000    74.14000000    27.03000000
   H     89.24400000    75.54800000    27.92000000
   N     88.83000000    72.78000000    29.69000000
   C     88.12000000    72.14000000    30.78000000
   C     88.39000000    72.90000000    32.07000000
   O     87.53000000    72.83000000    32.95000000
   C     88.44000000    70.66000000    30.97000000
   C     89.90000000    70.33000000    31.25000000
   O     90.86000000    71.06000000    30.92000000
   O     90.09000000    69.18000000    31.71000000
   H     89.70000000    72.32000000    29.45000000
   H     87.06000000    72.30000000    30.61000000
   H     88.14000000    70.18000000    30.04000000
   H     87.79000000    70.32000000    31.78000000
   N     89.51000000    73.58000000    32.31000000
   C     89.85000000    74.49000000    33.38000000
   C     89.76000000    73.79000000    34.73000000
   O     90.40000000    72.74000000    34.81000000
   C     91.23000000    75.11000000    33.16000000
   C     91.45000000    76.05000000    31.98000000
   C     90.40000000    77.16000000    31.95000000
   C     90.67000000    78.24000000    30.92000000
   N     89.64000000    79.29000000    30.98000000
   H     90.11000000    73.62000000    31.50000000
   H     89.08000000    75.27000000    33.40000000
   H     91.98000000    74.33000000    33.04000000
   H     91.53000000    75.60000000    34.09000000
   H     91.33000000    75.44000000    31.09000000
   H     92.42000000    76.56000000    31.91000000
   H     90.24000000    77.68000000    32.89000000
   H     89.44000000    76.71000000    31.68000000
   H     90.75000000    77.86000000    29.90000000
   H     91.57000000    78.85000000    31.06000000
   H     89.65000000    79.71000000    30.06000000
   H     88.68000000    78.99000000    31.08000000
   H     89.88000000    80.04000000    31.62000000
   N     88.98000000    74.24000000    35.71000000
   C     88.88000000    73.53000000    36.97000000
   C     87.93000000    72.34000000    36.95000000
   O     87.74000000    71.71000000    37.98000000
   C     88.85000000    74.37000000    38.24000000
   C     87.75000000    75.43000000    38.30000000
   O     87.85000000    76.42000000    37.54000000
   O     86.72000000    75.28000000    38.99000000
   H     88.42000000    75.07000000    35.57000000
   H     89.84000000    73.04000000    37.06000000
   H     89.78000000    74.93000000    38.29000000
   H     88.71000000    73.72000000    39.11000000
   N     87.24000000    72.09000000    35.83000000
   C     86.33000000    71.00000000    35.52000000
   C     87.09000000    69.91000000    34.78000000
   O     88.31000000    69.97000000    34.78000000
   H     87.44000000    72.66000000    35.02000000
   H     85.55000000    71.44000000    34.90000000
   H     85.81000000    70.52000000    36.35000000
   N     86.48000000    68.92000000    34.11000000
   C     85.11000000    68.46000000    34.10000000
   C     84.71000000    68.03000000    32.69000000
   O     84.30000000    66.88000000    32.59000000
   C     84.99000000    67.28000000    35.06000000
   C     85.51000000    67.56000000    36.47000000
   N     86.71000000    67.06000000    36.78000000
   O     84.90000000    68.21000000    37.31000000
   H     87.10000000    68.39000000    33.52000000
   H     84.39000000    69.24000000    34.34000000
   H     85.51000000    66.39000000    34.72000000
   H     83.92000000    67.08000000    35.19000000
   H     87.33000000    66.57000000    36.15000000
   H     86.99000000    67.37000000    37.70000000
   N     84.68000000    68.83000000    31.62000000
   C     84.80000000    70.27000000    31.52000000
   C     83.67000000    71.08000000    32.13000000
   O     83.81000000    72.27000000    32.39000000
   H     84.28000000    68.41000000    30.79000000
   H     85.01000000    70.60000000    30.51000000
   H     85.66000000    70.62000000    32.10000000
   N     82.55000000    70.38000000    32.34000000
   C     81.46000000    70.92000000    33.12000000
   C     81.80000000    70.97000000    34.60000000
   O     82.19000000    69.98000000    35.23000000
   C     80.17000000    70.15000000    32.86000000
   C     79.51000000    70.47000000    31.54000000
   C     79.32000000    71.80000000    31.13000000
   C     79.06000000    69.45000000    30.69000000
   C     78.73000000    72.17000000    29.92000000
   C     78.42000000    69.76000000    29.48000000
   C     78.22000000    71.11000000    29.14000000
   O     77.82000000    71.36000000    27.86000000
   H     82.48000000    69.44000000    31.97000000
   H     81.27000000    71.93000000    32.75000000
   H     79.50000000    70.37000000    33.69000000
   H     80.26000000    69.07000000    32.94000000
   H     79.63000000    72.60000000    31.79000000
   H     79.23000000    68.41000000    30.94000000
   H     78.71000000    73.20000000    29.61000000
   H     77.98000000    69.02000000    28.83000000
   H     77.61000000    70.52000000    27.44000000
   N     81.60000000    72.13000000    35.23000000
   C     81.96000000    72.52000000    36.58000000
   C     80.89000000    72.20000000    37.63000000
   O     81.06000000    72.47000000    38.81000000
   C     82.12000000    74.03000000    36.69000000
   C     83.42000000    74.47000000    36.01000000
   C     81.03000000    74.90000000    36.08000000
   C     84.71000000    73.94000000    36.61000000
   H     81.28000000    72.83000000    34.58000000
   H     82.88000000    71.96000000    36.77000000
   H     82.16000000    74.38000000    37.72000000
   H     83.61000000    75.54000000    36.11000000
   H     83.35000000    74.21000000    34.95000000
   H     80.94000000    74.74000000    35.01000000
   H     80.06000000    74.73000000    36.55000000
   H     81.24000000    75.96000000    36.27000000
   H     84.77000000    72.87000000    36.43000000
   H     85.47000000    74.54000000    36.11000000
   H     84.68000000    74.11000000    37.69000000
   N     79.81000000    71.59000000    37.13000000
   C     78.72000000    71.12000000    37.95000000
   C     77.91000000    72.14000000    38.74000000
   O     77.88000000    73.28000000    38.29000000
   C     77.64000000    70.45000000    37.09000000
   O     78.06000000    69.58000000    36.06000000
   H     79.87000000    71.36000000    36.14000000
   H     79.14000000    70.37000000    38.62000000
   H     77.06000000    71.24000000    36.62000000
   H     77.01000000    69.84000000    37.73000000
   H     77.56000000    69.69000000    35.25000000
   N     77.39000000    71.88000000    39.94000000
   C     76.54000000    72.73000000    40.74000000
   C     77.35000000    73.62000000    41.67000000
   O     78.55000000    73.46000000    41.88000000
   C     75.50000000    71.90000000    41.49000000
   H     77.46000000    70.90000000    40.17000000
   H     75.97000000    73.37000000    40.06000000
   H     75.94000000    71.35000000    42.32000000
   H     74.73000000    72.54000000    41.91000000
   H     75.05000000    71.11000000    40.89000000
   N     76.63000000    74.71000000    41.95000000
   C     77.04000000    75.82000000    42.79000000
   C     78.34000000    76.52000000    42.42000000
   O     79.05000000    77.06000000    43.27000000
   C     76.97000000    75.44000000    44.27000000
   H     75.71000000    74.78000000    41.54000000
   H     76.35000000    76.65000000    42.65000000
   H     75.97000000    75.24000000    44.64000000
   H     77.59000000    74.57000000    44.48000000
   H     77.32000000    76.29000000    44.86000000
   N     78.56000000    76.63000000    41.11000000
   C     79.76000000    77.16000000    40.51000000
   C     79.49000000    78.28000000    39.51000000
   O     80.41000000    79.05000000    39.26000000
   C     80.66000000    76.03000000    40.02000000
   C     82.10000000    76.54000000    39.98000000
   C     82.78000000    76.75000000    41.32000000
   O     82.51000000    77.74000000    42.03000000
   O     83.57000000    75.91000000    41.81000000
   H     77.86000000    76.23000000    40.50000000
   H     80.16000000    77.74000000    41.35000000
   H     80.40000000    75.62000000    39.04000000
   H     80.62000000    75.27000000    40.80000000
   H     82.28000000    77.45000000    39.41000000
   H     82.70000000    75.87000000    39.37000000
   N     78.33000000    78.46000000    38.87000000
   C     78.27000000    79.26000000    37.66000000
   H     78.00700000    80.28600000    37.91600000
   H     79.24200000    79.24700000    37.16600000
   H     77.51500000    78.84900000    36.98900000
   H     77.58000000    77.83000000    39.12000000
  Ca     85.55000000    74.51000000    41.20000000
   O     88.15000000    74.61000000    41.79000000
   H     88.96000000    74.74000000    41.29000000
   H     88.42000000    74.69000000    42.70000000

Ca 1.70



