%chk=Ng-31_loop3_23.0.chk
%nprocshared=48
%mem=10GB
%nosave
#b3lyp/svp scf=(tight,noincore) Test 
#IOP(5/87=12) Density=Current Pop=(MK,readradii) iop(6/33=2) iop(6/42=6)

Ng-31_loop3_23.0 

   0   1
   C      0.09200000    90.69000000    14.73000000
   C      0.25200000    89.45000000    15.59000000
   O     -0.42800000    89.27000000    16.60000000
   H     -0.65900000    91.34400000    15.17300000
   H      1.04400000    91.21800000    14.67200000
   H     -0.22500000    90.40000000    13.72800000
   N      1.11200000    88.49000000    15.23000000
   C      1.48200000    87.23000000    15.85000000
   C      2.33200000    87.35000000    17.10000000
   O      2.25200000    86.38000000    17.85000000
   C      2.15200000    86.28000000    14.86000000
   C      3.17200000    86.93000000    13.95000000
   O      3.53200000    88.11000000    14.17000000
   O      3.57200000    86.31000000    12.94000000
   H      1.70200000    88.77000000    14.46000000
   H      0.53200000    86.77000000    16.10000000
   H      1.45200000    85.90000000    14.12000000
   H      2.62200000    85.43000000    15.37000000
   N      2.90200000    88.53000000    17.39000000
   C      3.44200000    88.95000000    18.66000000
   C      4.64200000    88.11000000    19.08000000
   O      5.66200000    87.87000000    18.44000000
   C      3.87200000    90.42000000    18.60000000
   C      2.67200000    91.36000000    18.47000000
   C      2.87200000    92.79000000    18.98000000
   C      1.65200000    93.71000000    18.90000000
   N      0.38200000    93.20000000    19.45000000
   H      3.12200000    89.12000000    16.60000000
   H      2.65200000    88.78000000    19.39000000
   H      4.53200000    90.64000000    17.76000000
   H      4.46200000    90.69000000    19.47000000
   H      1.83200000    90.95000000    19.02000000
   H      2.45200000    91.44000000    17.41000000
   H      3.69200000    93.38000000    18.58000000
   H      3.14200000    92.78000000    20.04000000
   H      1.51200000    94.02000000    17.87000000
   H      1.91200000    94.70000000    19.29000000
   H      0.46200000    93.04000000    20.44000000
   H     -0.38800000    93.86000000    19.41000000
   H      0.15200000    92.34000000    18.98000000
   N      4.44200000    87.58000000    20.28000000
   C      5.38200000    86.68000000    20.93000000
   C      5.06200000    85.22000000    20.67000000
   O      5.76200000    84.28000000    21.04000000
   C      5.61200000    87.04000000    22.39000000
   C      4.40200000    87.15000000    23.31000000
   O      4.38200000    86.52000000    24.39000000
   O      3.36200000    87.73000000    22.94000000
   H      3.65200000    87.86000000    20.84000000
   H      6.31200000    86.81000000    20.37000000
   H      6.19200000    87.96000000    22.34000000
   H      6.32200000    86.36000000    22.87000000
   N      4.03200000    84.93000000    19.86000000
   C      3.54200000    83.61000000    19.55000000
   C      4.43200000    82.88000000    18.56000000
   O      5.37200000    83.51000000    18.08000000
   H      3.50200000    85.66000000    19.40000000
   H      2.57200000    83.60000000    19.05000000
   H      3.46200000    83.05000000    20.48000000
   N      4.15200000    81.62000000    18.20000000
   C      3.13200000    80.63000000    18.49000000
   C      2.78200000    79.80000000    17.27000000
   O      3.42200000    78.77000000    17.04000000
   C      3.51200000    79.75000000    19.68000000
   C      3.48200000    80.46000000    21.03000000
   N      2.37200000    81.11000000    21.39000000
   O      4.38200000    80.24000000    21.84000000
   H      4.81200000    81.28000000    17.51000000
   H      2.19200000    81.10000000    18.76000000
   H      4.54200000    79.44000000    19.48000000
   H      2.83200000    78.90000000    19.75000000
   H      1.67200000    81.13000000    20.66000000
   H      2.28200000    81.59000000    22.28000000
   N      1.84200000    80.19000000    16.40000000
   C      1.19200000    81.48000000    16.40000000
   C     -0.04800000    81.79000000    17.22000000
   O     -0.15800000    82.90000000    17.74000000
   H      1.67200000    79.60000000    15.60000000
   H      0.89200000    81.68000000    15.37000000
   H      1.87200000    82.30000000    16.66000000
   N     -0.96800000    80.83000000    17.39000000
   C     -1.87800000    81.00000000    18.50000000
   C     -1.22800000    81.04000000    19.87000000
   O     -0.04800000    80.74000000    20.06000000
   C     -2.83800000    79.81000000    18.51000000
   C     -3.68800000    79.76000000    17.27000000
   C     -4.23800000    80.88000000    16.62000000
   C     -3.75800000    78.52000000    16.63000000
   C     -4.92800000    80.66000000    15.42000000
   C     -4.51800000    78.26000000    15.48000000
   C     -5.06800000    79.38000000    14.83000000
   O     -5.77800000    79.24000000    13.67000000
   H     -0.84800000    79.96000000    16.90000000
   H     -2.34800000    81.97000000    18.33000000
   H     -3.47800000    79.89000000    19.39000000
   H     -2.30800000    78.87000000    18.60000000
   H     -4.18800000    81.89000000    17.00000000
   H     -3.18800000    77.67000000    16.98000000
   H     -5.41800000    81.41000000    14.83000000
   H     -4.56800000    77.25000000    15.10000000
   H     -5.64800000    78.31000000    13.47000000
   N     -2.00800000    81.44000000    20.88000000
   C     -1.49800000    82.11000000    22.06000000
   C     -1.66800000    81.30000000    23.34000000
   O     -1.02800000    81.69000000    24.31000000
   C     -2.06800000    83.51000000    22.21000000
   C     -1.79800000    84.35000000    20.96000000
   C     -3.56800000    83.49000000    22.52000000
   C     -0.33800000    84.60000000    20.60000000
   H     -2.99800000    81.51000000    20.69000000
   H     -0.42800000    82.28000000    22.02000000
   H     -1.58800000    84.01000000    23.05000000
   H     -2.31800000    85.31000000    21.04000000
   H     -2.31800000    83.84000000    20.15000000
   H     -3.91800000    84.50000000    22.71000000
   H     -4.09800000    83.17000000    21.62000000
   H     -3.79800000    82.87000000    23.39000000
   H     -0.24800000    85.08000000    19.63000000
   H      0.05200000    85.19000000    21.44000000
   H      0.15200000    83.63000000    20.57000000
   N     -2.45800000    80.22000000    23.29000000
   C     -2.88800000    79.34000000    24.36000000
   C     -3.94800000    79.89000000    25.30000000
   O     -4.74800000    80.76000000    24.94000000
   C     -3.50800000    78.13000000    23.67000000
   O     -2.49800000    77.57000000    22.87000000
   H     -2.87800000    79.98000000    22.41000000
   H     -2.08800000    78.96000000    24.99000000
   H     -4.30800000    78.42000000    22.99000000
   H     -3.93800000    77.39000000    24.35000000
   H     -2.88800000    76.88000000    22.33000000
   N     -3.94800000    79.36000000    26.52000000
   C     -4.72800000    79.79000000    27.67000000
   C     -4.27800000    81.14000000    28.20000000
   O     -3.13800000    81.54000000    27.98000000
   C     -4.62800000    78.76000000    28.79000000
   H     -3.33800000    78.58000000    26.73000000
   H     -5.78800000    79.79000000    27.40000000
   H     -3.67800000    78.78000000    29.32000000
   H     -5.28800000    79.13000000    29.57000000
   H     -4.93800000    77.76000000    28.47000000
   N     -5.17800000    81.85000000    28.89000000
   C     -4.95800000    83.19000000    29.40000000
   C     -4.35800000    84.21000000    28.44000000
   O     -3.42800000    84.93000000    28.82000000
   C     -4.09800000    83.05000000    30.65000000
   H     -6.13800000    81.53000000    28.86000000
   H     -5.95800000    83.53000000    29.66000000
   H     -4.35800000    82.24000000    31.33000000
   H     -3.04800000    82.93000000    30.39000000
   H     -4.18800000    83.94000000    31.28000000
   N     -4.84800000    84.43000000    27.22000000
   C     -4.66800000    85.69000000    26.53000000
   C     -5.96800000    86.10000000    25.86000000
   O     -6.23800000    87.30000000    25.75000000
   C     -3.45800000    85.58000000    25.61000000
   C     -3.21800000    86.80000000    24.73000000
   C     -1.74800000    87.08000000    24.44000000
   O     -1.33800000    86.65000000    23.34000000
   O     -0.95800000    87.81000000    25.07000000
   H     -5.59800000    83.80000000    26.95000000
   H     -4.53800000    86.46000000    27.30000000
   H     -3.37800000    84.63000000    25.09000000
   H     -2.61800000    85.37000000    26.27000000
   H     -3.71800000    87.67000000    25.16000000
   H     -3.72800000    86.58000000    23.80000000
   N     -6.75800000    85.17000000    25.34000000
   C     -7.98800000    85.49000000    24.63000000
   H     -8.74000000    85.83100000    25.34200000
   H     -7.79400000    86.27800000    23.90200000
   H     -8.35300000    84.60100000    24.11500000
   H     -6.53800000    84.21000000    25.56000000
  Ca      0.83000000    87.93000000    23.14000000
   O      1.37000000    85.36000000    23.41000000
   H      2.20000000    84.88000000    23.40000000
   H      0.77000000    84.80000000    23.89000000

Ca 1.70



