%chk=Ng-31_loop3_9.0.chk
%nprocshared=48
%mem=10GB
%nosave
#b3lyp/svp scf=(tight,noincore) Test 
#IOP(5/87=12) Density=Current Pop=(MK,readradii) iop(6/33=2) iop(6/42=6)

Ng-31_loop3_9.0 

   0   1
   C     86.30000000    74.66000000    25.96000000
   C     87.69000000    74.56000000    26.56000000
   O     88.08000000    73.50000000    27.05000000
   H     85.64200000    75.18200000    26.65400000
   H     86.34800000    75.21100000    25.02100000
   H     85.91100000    73.65900000    25.77500000
   N     88.48000000    75.63000000    26.44000000
   C     89.89000000    75.51000000    26.75000000
   C     90.20000000    75.50000000    28.24000000
   O     91.01000000    74.70000000    28.70000000
   C     90.77000000    76.47000000    25.97000000
   C     90.31000000    77.92000000    25.94000000
   O     89.40000000    78.22000000    25.14000000
   O     90.79000000    78.79000000    26.70000000
   H     88.12000000    76.49000000    26.04000000
   H     90.14000000    74.51000000    26.40000000
   H     90.74000000    76.14000000    24.93000000
   H     91.78000000    76.49000000    26.38000000
   N     89.50000000    76.33000000    29.03000000
   C     89.48000000    76.11000000    30.46000000
   C     90.88000000    76.28000000    31.04000000
   O     91.70000000    77.14000000    30.71000000
   C     88.56000000    77.17000000    31.06000000
   C     87.87000000    76.70000000    32.34000000
   C     86.53000000    77.39000000    32.53000000
   C     85.99000000    77.17000000    33.94000000
   N     86.67000000    77.99000000    34.95000000
   H     88.91000000    77.03000000    28.61000000
   H     89.15000000    75.11000000    30.73000000
   H     87.73000000    77.48000000    30.43000000
   H     89.23000000    77.99000000    31.31000000
   H     88.48000000    77.05000000    33.17000000
   H     87.58000000    75.65000000    32.29000000
   H     85.78000000    77.10000000    31.80000000
   H     86.57000000    78.44000000    32.27000000
   H     85.93000000    76.12000000    34.26000000
   H     84.98000000    77.58000000    33.89000000
   H     86.13000000    77.83000000    35.79000000
   H     87.62000000    77.68000000    35.12000000
   H     86.65000000    78.97000000    34.70000000
   N     91.17000000    75.37000000    31.96000000
   C     92.44000000    75.23000000    32.64000000
   C     93.28000000    74.11000000    32.04000000
   O     94.39000000    73.82000000    32.49000000
   C     92.31000000    75.15000000    34.16000000
   C     91.26000000    74.29000000    34.85000000
   O     90.82000000    73.26000000    34.30000000
   O     90.83000000    74.51000000    36.00000000
   H     90.56000000    74.58000000    32.09000000
   H     93.05000000    76.12000000    32.50000000
   H     92.14000000    76.15000000    34.56000000
   H     93.26000000    74.85000000    34.63000000
   N     93.00000000    73.60000000    30.83000000
   C     93.82000000    72.74000000    30.00000000
   C     95.00000000    73.39000000    29.28000000
   O     95.31000000    74.56000000    29.52000000
   H     92.09000000    73.76000000    30.44000000
   H     93.25000000    72.32000000    29.17000000
   H     94.32000000    71.96000000    30.58000000
   N     95.51000000    72.84000000    28.18000000
   C     95.16000000    71.58000000    27.56000000
   C     93.88000000    71.61000000    26.75000000
   O     93.41000000    72.64000000    26.27000000
   C     96.37000000    71.22000000    26.70000000
   C     97.50000000    70.61000000    27.52000000
   N     97.57000000    69.28000000    27.55000000
   O     98.38000000    71.34000000    27.98000000
   H     96.24000000    73.39000000    27.74000000
   H     94.97000000    70.82000000    28.33000000
   H     96.68000000    72.14000000    26.20000000
   H     96.20000000    70.42000000    25.98000000
   H     97.04000000    68.64000000    26.97000000
   H     98.40000000    68.81000000    27.88000000
   N     93.27000000    70.46000000    26.43000000
   C     93.62000000    69.12000000    26.87000000
   C     93.23000000    68.78000000    28.30000000
   O     92.23000000    69.26000000    28.83000000
   H     92.42000000    70.55000000    25.89000000
   H     94.67000000    68.83000000    26.80000000
   H     93.15000000    68.43000000    26.17000000
   N     93.95000000    67.87000000    28.96000000
   C     93.58000000    67.16000000    30.17000000
   C     94.72000000    67.01000000    31.17000000
   O     95.85000000    67.32000000    30.81000000
   C     93.14000000    65.75000000    29.78000000
   C     92.14000000    65.76000000    28.64000000
   C     90.87000000    66.21000000    29.01000000
   C     92.39000000    65.36000000    27.32000000
   C     89.80000000    66.24000000    28.10000000
   C     91.34000000    65.47000000    26.40000000
   C     90.05000000    65.91000000    26.76000000
   O     89.12000000    65.98000000    25.76000000
   H     94.76000000    67.48000000    28.51000000
   H     92.76000000    67.58000000    30.75000000
   H     92.64000000    65.26000000    30.61000000
   H     93.95000000    65.13000000    29.39000000
   H     90.78000000    66.57000000    30.03000000
   H     93.37000000    65.03000000    27.04000000
   H     88.90000000    66.69000000    28.48000000
   H     91.53000000    65.18000000    25.38000000
   H     89.50000000    65.93000000    24.88000000
   N     94.52000000    66.44000000    32.36000000
   C     95.54000000    65.94000000    33.26000000
   C     95.39000000    64.44000000    33.49000000
   O     96.41000000    63.76000000    33.62000000
   C     95.58000000    66.83000000    34.50000000
   C     94.35000000    66.73000000    35.39000000
   C     96.86000000    66.51000000    35.27000000
   C     94.06000000    67.81000000    36.42000000
   H     93.56000000    66.41000000    32.67000000
   H     96.49000000    66.07000000    32.75000000
   H     95.46000000    67.84000000    34.11000000
   H     94.25000000    65.77000000    35.90000000
   H     93.45000000    66.80000000    34.78000000
   H     97.81000000    66.70000000    34.76000000
   H     96.89000000    67.17000000    36.14000000
   H     96.92000000    65.48000000    35.63000000
   H     92.97000000    67.86000000    36.55000000
   H     94.50000000    67.55000000    37.38000000
   H     94.48000000    68.71000000    35.98000000
   N     94.16000000    63.93000000    33.50000000
   C     93.74000000    62.60000000    33.88000000
   C     92.38000000    62.64000000    34.58000000
   O     91.50000000    61.88000000    34.18000000
   C     93.88000000    61.59000000    32.75000000
   O     95.23000000    61.33000000    32.45000000
   H     93.48000000    64.62000000    33.24000000
   H     94.49000000    62.32000000    34.62000000
   H     93.31000000    61.68000000    31.82000000
   H     93.41000000    60.71000000    33.21000000
   H     95.76000000    61.21000000    33.24000000
   N     92.09000000    63.49000000    35.56000000
   C     90.78000000    63.47000000    36.19000000
   C     90.04000000    64.80000000    36.29000000
   O     90.71000000    65.81000000    36.45000000
   C     90.96000000    62.94000000    37.60000000
   H     92.75000000    64.23000000    35.75000000
   H     90.09000000    62.77000000    35.72000000
   H     91.64000000    62.09000000    37.71000000
   H     91.17000000    63.78000000    38.27000000
   H     90.00000000    62.58000000    37.97000000
   N     88.72000000    64.75000000    36.53000000
   C     87.80000000    65.74000000    37.04000000
   C     87.72000000    66.93000000    36.09000000
   O     87.17000000    67.99000000    36.39000000
   C     88.04000000    66.12000000    38.50000000
   H     88.36000000    63.81000000    36.41000000
   H     86.80000000    65.32000000    37.01000000
   H     89.07000000    66.06000000    38.85000000
   H     87.66000000    67.13000000    38.69000000
   H     87.50000000    65.39000000    39.11000000
   N     88.30000000    66.91000000    34.90000000
   C     88.25000000    67.98000000    33.92000000
   C     87.13000000    67.73000000    32.93000000
   O     86.34000000    68.62000000    32.60000000
   C     89.55000000    68.13000000    33.14000000
   C     90.76000000    68.61000000    33.94000000
   C     90.63000000    69.93000000    34.69000000
   O     89.65000000    70.70000000    34.56000000
   O     91.31000000    70.12000000    35.72000000
   H     88.63000000    66.05000000    34.48000000
   H     88.02000000    68.90000000    34.46000000
   H     89.46000000    68.81000000    32.29000000
   H     89.78000000    67.19000000    32.65000000
   H     91.63000000    68.70000000    33.28000000
   H     90.97000000    67.87000000    34.71000000
   N     86.94000000    66.48000000    32.49000000
   C     85.70000000    66.03000000    31.91000000
   H     84.95800000    66.82600000    31.97800000
   H     85.86000000    65.77200000    30.86300000
   H     85.34300000    65.15300000    32.45000000
   H     87.60000000    65.80000000    32.84000000
  Ca     89.97000000    72.19000000    36.72000000
   O     92.31000000    72.79000000    37.69000000
   H     93.06000000    72.66000000    37.11000000
   H     92.65000000    72.64000000    38.57000000

Ca 1.70



