%chk=Ng-31_loop3_34.0.chk
%nprocshared=48
%mem=10GB
%nosave
#b3lyp/svp scf=(tight,noincore) Test 
#IOP(5/87=12) Density=Current Pop=(MK,readradii) iop(6/33=2) iop(6/42=6)

Ng-31_loop3_34.0 

   0   1
   C      5.44600000    59.51000000    19.45000000
   C      6.61600000    58.65000000    18.98000000
   O      6.40600000    57.46000000    18.78000000
   H      4.58000000    58.87500000    19.63400000
   H      5.72000000    60.02500000    20.37100000
   H      5.20100000    60.24300000    18.68100000
   N      7.81600000    59.21000000    18.83000000
   C      8.96600000    58.43000000    18.40000000
   C      9.35600000    57.29000000    19.34000000
   O      8.98600000    56.15000000    19.08000000
   C     10.08600000    59.44000000    18.18000000
   C     10.47600000    60.32000000    19.35000000
   O     11.34600000    59.92000000    20.15000000
   O      9.90600000    61.41000000    19.63000000
   H      7.85600000    60.20000000    19.02000000
   H      8.80600000    57.94000000    17.44000000
   H      9.75600000    60.08000000    17.36000000
   H     10.97600000    58.86000000    17.92000000
   N      9.82600000    57.52000000    20.57000000
   C     10.33600000    56.49000000    21.45000000
   C     11.42600000    55.65000000    20.81000000
   O     12.59600000    55.91000000    21.06000000
   C     10.61600000    57.04000000    22.85000000
   C     10.80600000    55.86000000    23.81000000
   C     10.82600000    56.23000000    25.29000000
   C     10.55600000    55.06000000    26.22000000
   N     11.58600000    54.03000000    26.10000000
   H     10.07600000    58.48000000    20.77000000
   H      9.52600000    55.77000000    21.62000000
   H      9.80600000    57.66000000    23.22000000
   H     11.50600000    57.67000000    22.87000000
   H     11.72600000    55.33000000    23.58000000
   H     10.06600000    55.09000000    23.57000000
   H     10.00600000    56.91000000    25.53000000
   H     11.83600000    56.62000000    25.49000000
   H      9.52600000    54.69000000    26.17000000
   H     10.67600000    55.46000000    27.23000000
   H     11.48600000    53.54000000    25.22000000
   H     12.52600000    54.39000000    25.98000000
   H     11.70600000    53.45000000    26.93000000
   N     11.11600000    54.69000000    19.93000000
   C     12.02600000    53.82000000    19.22000000
   C     11.65600000    53.67000000    17.75000000
   O     12.11600000    52.75000000    17.07000000
   C     12.18600000    52.46000000    19.90000000
   C     10.85600000    51.77000000    20.19000000
   O     10.08600000    51.53000000    19.23000000
   O     10.34600000    51.85000000    21.32000000
   H     10.13600000    54.46000000    19.84000000
   H     12.98600000    54.28000000    19.03000000
   H     12.68600000    52.52000000    20.87000000
   H     12.66600000    51.73000000    19.25000000
   N     10.64600000    54.41000000    17.28000000
   C     10.05600000    54.25000000    15.97000000
   C      8.75600000    55.02000000    15.75000000
   O      8.10600000    55.51000000    16.66000000
   H     10.31600000    55.13000000    17.90000000
   H      9.94600000    53.17000000    15.82000000
   H     10.76600000    54.61000000    15.23000000
   N      8.27600000    55.03000000    14.50000000
   C      8.80600000    54.27000000    13.38000000
   C      7.72600000    53.59000000    12.56000000
   O      6.76600000    54.22000000    12.12000000
   C      9.66600000    55.14000000    12.47000000
   C     10.36600000    54.37000000    11.35000000
   N     11.40600000    53.57000000    11.60000000
   O      9.99600000    54.53000000    10.19000000
   H      7.43600000    55.59000000    14.43000000
   H      9.41600000    53.49000000    13.84000000
   H     10.48600000    55.67000000    12.96000000
   H      9.13600000    55.98000000    12.01000000
   H     11.54600000    53.19000000    12.53000000
   H     11.90600000    53.23000000    10.80000000
   N      7.79600000    52.30000000    12.20000000
   C      8.65600000    51.25000000    12.69000000
   C      8.22600000    50.74000000    14.06000000
   O      8.31600000    51.49000000    15.03000000
   H      7.06600000    51.98000000    11.59000000
   H      9.68600000    51.61000000    12.66000000
   H      8.50600000    50.42000000    11.99000000
   N      7.69600000    49.52000000    14.10000000
   C      6.93600000    48.93000000    15.19000000
   C      7.54600000    47.58000000    15.55000000
   O      7.97600000    46.89000000    14.63000000
   C      5.50600000    48.98000000    14.65000000
   C      4.91600000    50.35000000    14.43000000
   C      4.34600000    51.01000000    15.53000000
   C      4.97600000    51.10000000    13.24000000
   C      3.81600000    52.31000000    15.50000000
   C      4.43600000    52.38000000    13.15000000
   C      3.86600000    53.01000000    14.27000000
   O      3.32600000    54.26000000    14.28000000
   H      7.70600000    49.01000000    13.23000000
   H      6.98600000    49.66000000    15.99000000
   H      4.92600000    48.58000000    15.48000000
   H      5.40600000    48.33000000    13.79000000
   H      4.29600000    50.45000000    16.45000000
   H      5.41600000    50.68000000    12.35000000
   H      3.30600000    52.79000000    16.32000000
   H      4.58600000    52.94000000    12.23000000
   H      3.44600000    54.69000000    13.43000000
   N      7.60600000    47.28000000    16.85000000
   C      8.12600000    46.04000000    17.38000000
   C      7.10600000    44.94000000    17.62000000
   O      7.35600000    43.80000000    18.01000000
   C      8.92600000    46.41000000    18.63000000
   C      8.10600000    46.23000000    19.91000000
   C     10.17600000    45.52000000    18.65000000
   C      8.81600000    46.96000000    21.04000000
   H      7.02600000    47.79000000    17.51000000
   H      8.79600000    45.54000000    16.68000000
   H      9.36600000    47.40000000    18.53000000
   H      8.10600000    45.17000000    20.17000000
   H      7.08600000    46.58000000    19.73000000
   H     10.84600000    45.97000000    19.38000000
   H      9.90600000    44.47000000    18.74000000
   H     10.77600000    45.68000000    17.76000000
   H      9.75600000    46.45000000    21.29000000
   H      8.95600000    47.99000000    20.71000000
   H      8.11600000    46.84000000    21.86000000
   N      5.83600000    45.27000000    17.39000000
   C      4.70600000    44.37000000    17.52000000
   C      4.14600000    44.40000000    18.94000000
   O      3.08600000    43.81000000    19.13000000
   C      3.64600000    44.79000000    16.51000000
   O      4.12600000    44.73000000    15.19000000
   H      5.66600000    46.19000000    17.01000000
   H      4.93600000    43.31000000    17.48000000
   H      3.35600000    45.83000000    16.69000000
   H      2.74600000    44.20000000    16.70000000
   H      3.94600000    43.84000000    14.85000000
   N      4.64600000    45.26000000    19.82000000
   C      4.33600000    45.34000000    21.23000000
   C      4.45600000    46.76000000    21.75000000
   O      5.35600000    47.51000000    21.40000000
   C      5.24600000    44.34000000    21.94000000
   H      5.45600000    45.80000000    19.53000000
   H      3.35600000    44.92000000    21.49000000
   H      5.35600000    44.55000000    23.01000000
   H      4.94600000    43.30000000    21.84000000
   H      6.28600000    44.50000000    21.65000000
   N      3.63600000    47.09000000    22.76000000
   C      3.74600000    48.19000000    23.69000000
   C      3.58600000    49.60000000    23.13000000
   O      4.01600000    50.57000000    23.75000000
   C      4.84600000    47.97000000    24.72000000
   H      2.88600000    46.46000000    22.99000000
   H      2.81600000    48.19000000    24.27000000
   H      4.71600000    48.65000000    25.56000000
   H      4.75600000    46.95000000    25.11000000
   H      5.78600000    48.02000000    24.18000000
   N      2.78600000    49.71000000    22.07000000
   C      2.38600000    50.92000000    21.39000000
   C      0.92600000    51.29000000    21.62000000
   O      0.61600000    52.43000000    21.94000000
   C      2.69600000    50.81000000    19.90000000
   C      4.16600000    50.61000000    19.52000000
   C      5.05600000    51.81000000    19.79000000
   O      5.39600000    52.59000000    18.87000000
   O      5.38600000    51.97000000    20.99000000
   H      2.46600000    48.88000000    21.60000000
   H      2.91600000    51.78000000    21.79000000
   H      2.31600000    51.75000000    19.49000000
   H      2.08600000    50.08000000    19.37000000
   H      4.15600000    50.55000000    18.43000000
   H      4.59600000    49.67000000    19.85000000
   N     -0.01400000    50.35000000    21.48000000
   C     -1.38400000    50.62000000    21.10000000
   H     -1.98700000    50.76500000    21.99600000
   H     -1.42100000    51.52100000    20.48800000
   H     -1.77700000    49.77700000    20.53100000
   H      0.24600000    49.38000000    21.39000000
  Ca      6.70000000    54.75000000    18.75000000
   O      6.95000000    56.04000000    21.16000000
   H      7.11000000    55.44000000    21.88000000
   H      6.30000000    56.66000000    21.50000000

Ca 1.70



