%chk=Ng-31_loop3_8.0.chk
%nprocshared=48
%mem=10GB
%nosave
#b3lyp/svp scf=(tight,noincore) Test 
#IOP(5/87=12) Density=Current Pop=(MK,readradii) iop(6/33=2) iop(6/42=6)

Ng-31_loop3_8.0 

   0   1
   C     -0.76600000    25.43000000    94.69600000
   C      0.70400000    25.82000000    94.67600000
   O      1.07400000    26.94000000    95.01600000
   H     -1.34600000    26.17500000    94.15200000
   H     -0.89100000    24.45600000    94.22300000
   H     -1.11500000    25.38100000    95.72700000
   N      1.52400000    24.93000000    94.11600000
   C      2.95400000    25.15000000    94.01600000
   C      3.39400000    25.37000000    92.58600000
   O      2.65400000    25.02000000    91.66600000
   C      3.75400000    23.96000000    94.55600000
   C      3.48400000    22.57000000    94.00600000
   O      4.21400000    22.00000000    93.16600000
   O      2.42400000    22.07000000    94.46600000
   H      1.17400000    24.06000000    93.73600000
   H      3.16400000    26.06000000    94.57600000
   H      3.59400000    23.93000000    95.62600000
   H      4.80400000    24.19000000    94.40600000
   N      4.60400000    25.90000000    92.33600000
   C      5.24400000    25.79000000    91.04600000
   C      4.80400000    26.91000000    90.10600000
   O      5.22400000    26.98000000    88.95600000
   C      6.75400000    25.68000000    91.21600000
   C      7.30400000    24.64000000    92.19600000
   C      7.13400000    23.23000000    91.64600000
   C      7.53400000    22.27000000    92.75600000
   N      6.76400000    21.02000000    92.58600000
   H      5.14400000    26.23000000    93.12600000
   H      4.99400000    24.81000000    90.63600000
   H      7.16400000    26.62000000    91.59600000
   H      7.20400000    25.53000000    90.23600000
   H      6.86400000    24.81000000    93.17600000
   H      8.38400000    24.79000000    92.29600000
   H      7.72400000    23.09000000    90.74600000
   H      6.06400000    23.13000000    91.42600000
   H      7.42400000    22.66000000    93.76600000
   H      8.58400000    22.06000000    92.54600000
   H      5.77400000    21.15000000    92.75600000
   H      6.84400000    20.72000000    91.62600000
   H      7.14400000    20.32000000    93.20600000
   N      3.91400000    27.81000000    90.54600000
   C      3.12400000    28.60000000    89.61600000
   C      3.43400000    30.08000000    89.77600000
   O      3.53400000    30.80000000    88.78600000
   C      1.62400000    28.40000000    89.81600000
   C      1.10400000    28.40000000    91.24600000
   O     -0.07600000    28.03000000    91.43600000
   O      1.83400000    28.84000000    92.16600000
   H      3.46400000    27.73000000    91.44600000
   H      3.29400000    28.32000000    88.57600000
   H      1.39400000    27.46000000    89.31600000
   H      1.01400000    29.14000000    89.28600000
   N      3.59400000    30.60000000    90.99600000
   C      4.09400000    31.92000000    91.32600000
   C      3.81400000    32.31000000    92.76600000
   O      3.23400000    31.50000000    93.48600000
   H      3.25400000    30.08000000    91.79600000
   H      3.64400000    32.62000000    90.61600000
   H      5.16400000    31.96000000    91.12600000
   N      4.27400000    33.47000000    93.25600000
   C      5.22400000    34.41000000    92.70600000
   C      4.69400000    35.81000000    92.99600000
   O      4.08400000    36.01000000    94.04600000
   C      6.54400000    34.29000000    93.46600000
   C      7.14400000    32.89000000    93.56600000
   N      7.57400000    32.47000000    94.75600000
   O      7.05400000    32.17000000    92.57600000
   H      3.79400000    33.79000000    94.08600000
   H      5.46400000    34.28000000    91.65600000
   H      6.49400000    34.56000000    94.52600000
   H      7.28400000    34.94000000    92.99600000
   H      7.73400000    33.09000000    95.53600000
   H      7.77400000    31.50000000    94.97600000
   N      4.88400000    36.84000000    92.16600000
   C      5.30400000    36.78000000    90.78600000
   C      4.17400000    36.37000000    89.84600000
   O      3.55400000    35.35000000    90.12600000
   H      4.52400000    37.76000000    92.39600000
   H      6.10400000    36.08000000    90.54600000
   H      5.72400000    37.72000000    90.45600000
   N      3.92400000    37.03000000    88.71600000
   C      2.68400000    37.04000000    87.95600000
   C      2.81400000    36.99000000    86.44600000
   O      3.34400000    37.88000000    85.77600000
   C      1.79400000    38.19000000    88.41600000
   C      1.64400000    38.29000000    89.91600000
   C      0.60400000    37.56000000    90.51600000
   C      2.49400000    39.08000000    90.70600000
   C      0.47400000    37.64000000    91.90600000
   C      2.37400000    39.16000000    92.09600000
   C      1.34400000    38.42000000    92.70600000
   O      1.06400000    38.56000000    94.03600000
   H      4.60400000    37.70000000    88.37600000
   H      2.07400000    36.18000000    88.23600000
   H      0.82400000    38.10000000    87.91600000
   H      2.14400000    39.18000000    88.13600000
   H     -0.00600000    36.87000000    89.95600000
   H      3.25400000    39.72000000    90.28600000
   H     -0.33600000    37.03000000    92.29600000
   H      3.09400000    39.67000000    92.71600000
   H      1.47400000    39.33000000    94.42600000
   N      2.10400000    36.07000000    85.78600000
   C      2.00400000    35.92000000    84.34600000
   C      0.58400000    36.20000000    83.89600000
   O      0.37400000    36.27000000    82.68600000
   C      2.39400000    34.52000000    83.88600000
   C      3.81400000    34.10000000    84.25600000
   C      1.48400000    33.42000000    84.43600000
   C      4.80400000    35.13000000    83.72600000
   H      1.61400000    35.38000000    86.33600000
   H      2.64400000    36.64000000    83.84600000
   H      2.19400000    34.41000000    82.81600000
   H      4.13400000    33.18000000    83.76600000
   H      3.95400000    33.89000000    85.30600000
   H      1.95400000    32.45000000    84.32600000
   H      1.17400000    33.52000000    85.47600000
   H      0.60400000    33.47000000    83.79600000
   H      4.85400000    35.97000000    84.42600000
   H      5.83400000    34.77000000    83.66600000
   H      4.46400000    35.42000000    82.73600000
   N     -0.37600000    36.52000000    84.77600000
   C     -1.74600000    36.86000000    84.45600000
   C     -2.47600000    35.68000000    83.84600000
   O     -3.56600000    35.89000000    83.30600000
   C     -2.48600000    37.49000000    85.63600000
   O     -2.89600000    36.72000000    86.74600000
   H     -0.15600000    36.12000000    85.67600000
   H     -1.68600000    37.58000000    83.63600000
   H     -3.36600000    38.06000000    85.32600000
   H     -1.99600000    38.37000000    86.02600000
   H     -2.12600000    36.29000000    87.13600000
   N     -2.10600000    34.40000000    83.96600000
   C     -2.56600000    33.25000000    83.21600000
   C     -2.28600000    31.94000000    83.93600000
   O     -1.14600000    31.57000000    84.20600000
   C     -1.90600000    33.36000000    81.84600000
   H     -1.23600000    34.29000000    84.46600000
   H     -3.64600000    33.30000000    83.17600000
   H     -2.11600000    32.41000000    81.34600000
   H     -2.25600000    34.24000000    81.31600000
   H     -0.81600000    33.33000000    81.85600000
   N     -3.39600000    31.27000000    84.23600000
   C     -3.45600000    30.00000000    84.93600000
   C     -2.73600000    30.03000000    86.27600000
   O     -2.01600000    29.09000000    86.59600000
   C     -3.01600000    28.92000000    83.94600000
   H     -4.31600000    31.59000000    83.95600000
   H     -4.46600000    29.66000000    85.15600000
   H     -2.87600000    27.92000000    84.34600000
   H     -3.86600000    28.83000000    83.27600000
   H     -2.21600000    29.29000000    83.30600000
   N     -2.93600000    31.04000000    87.12600000
   C     -2.27600000    31.10000000    88.41600000
   C     -3.10600000    31.62000000    89.59600000
   O     -2.90600000    31.27000000    90.75600000
   C     -1.12600000    32.10000000    88.32600000
   C     -1.51600000    33.42000000    87.65600000
   C     -0.36600000    34.42000000    87.67600000
   O      0.80400000    34.02000000    87.87600000
   O     -0.68600000    35.60000000    87.43600000
   H     -3.46600000    31.85000000    86.82600000
   H     -1.82600000    30.17000000    88.76600000
   H     -0.31600000    31.61000000    87.79600000
   H     -0.78600000    32.29000000    89.34600000
   H     -2.38600000    33.90000000    88.09600000
   H     -1.71600000    33.21000000    86.60600000
   N     -4.15600000    32.37000000    89.29600000
   C     -5.13600000    32.79000000    90.28600000
   H     -6.07100000    32.25600000    90.12000000
   H     -4.76300000    32.56600000    91.28500000
   H     -5.30900000    33.86200000    90.19400000
   H     -4.40600000    32.58000000    88.33600000
  Ca      1.71000000    29.73000000    94.77000000
   O     -0.13600000    29.74000000    96.59000000
   H     -0.83600000    29.19000000    96.95000000
   H     -0.14600000    30.53000000    97.13000000

Ca 1.70



