%chk=Ng-31_loop3_2.0.chk
%nprocshared=48
%mem=10GB
%nosave
#b3lyp/svp scf=(tight,noincore) Test 
#IOP(5/87=12) Density=Current Pop=(MK,readradii) iop(6/33=2) iop(6/42=6)

Ng-31_loop3_2.0 

   0   1
   C      0.52300000    41.94000000   103.56000000
   C      1.19300000    43.16000000   102.95000000
   O      1.25300000    43.39000000   101.74000000
   H     -0.46000000    41.80200000   103.10900000
   H      1.13500000    41.05700000   103.37300000
   H      0.41200000    42.08500000   104.63500000
   N      1.69300000    43.96000000   103.90000000
   C      2.33300000    45.26000000   103.87000000
   C      3.73300000    45.10000000   104.46000000
   O      3.99300000    44.20000000   105.26000000
   C      1.60300000    46.26000000   104.75000000
   C      1.39300000    45.79000000   106.19000000
   O      0.86300000    44.69000000   106.45000000
   O      1.66300000    46.62000000   107.08000000
   H      1.46300000    43.67000000   104.83000000
   H      2.40300000    45.58000000   102.83000000
   H      0.59300000    46.40000000   104.36000000
   H      2.12300000    47.22000000   104.69000000
   N      4.61300000    46.08000000   104.27000000
   C      5.89300000    46.09000000   104.95000000
   C      6.88300000    45.05000000   104.43000000
   O      8.06300000    45.02000000   104.78000000
   C      6.44300000    47.50000000   105.09000000
   C      5.53300000    48.59000000   105.63000000
   C      4.78300000    48.38000000   106.95000000
   C      3.73300000    49.48000000   107.06000000
   N      2.74300000    49.08000000   108.07000000
   H      4.51300000    46.76000000   103.54000000
   H      5.73300000    45.59000000   105.91000000
   H      6.76300000    47.85000000   104.11000000
   H      7.37300000    47.44000000   105.65000000
   H      4.85300000    48.83000000   104.81000000
   H      6.21300000    49.44000000   105.74000000
   H      5.47300000    48.49000000   107.78000000
   H      4.36300000    47.37000000   106.93000000
   H      3.27300000    49.62000000   106.08000000
   H      4.19300000    50.37000000   107.47000000
   H      3.24300000    48.94000000   108.93000000
   H      2.04300000    49.80000000   108.19000000
   H      2.27300000    48.22000000   107.82000000
   N      6.39300000    44.32000000   103.43000000
   C      6.81300000    43.00000000   103.00000000
   C      7.63300000    42.97000000   101.72000000
   O      8.57300000    42.20000000   101.54000000
   C      5.65300000    42.02000000   102.88000000
   C      4.54300000    42.37000000   101.91000000
   O      3.88300000    41.42000000   101.44000000
   O      4.32300000    43.53000000   101.49000000
   H      5.43300000    44.52000000   103.17000000
   H      7.49300000    42.53000000   103.72000000
   H      5.13300000    41.87000000   103.83000000
   H      6.07300000    41.10000000   102.45000000
   N      7.21300000    43.78000000   100.74000000
   C      7.93300000    44.08000000    99.52000000
   C      9.09300000    45.05000000    99.71000000
   O      9.41300000    45.49000000   100.81000000
   H      6.31300000    44.21000000   100.89000000
   H      7.31300000    44.61000000    98.80000000
   H      8.38300000    43.20000000    99.05000000
   N      9.78300000    45.41000000    98.63000000
   C      9.54300000    45.02000000    97.26000000
   C      8.38300000    45.87000000    96.77000000
   O      8.27300000    47.01000000    97.22000000
   C     10.76300000    45.30000000    96.38000000
   C     12.04300000    44.57000000    96.75000000
   N     11.98300000    43.24000000    96.87000000
   O     13.09300000    45.20000000    96.83000000
   H     10.55300000    46.06000000    98.72000000
   H      9.32300000    43.95000000    97.32000000
   H     10.94300000    46.38000000    96.35000000
   H     10.49300000    45.11000000    95.34000000
   H     11.12300000    42.71000000    96.87000000
   H     12.84300000    42.73000000    97.01000000
   N      7.55300000    45.38000000    95.84000000
   C      7.69300000    44.17000000    95.06000000
   C      7.10300000    42.93000000    95.70000000
   O      7.40300000    42.47000000    96.80000000
   H      6.80300000    45.97000000    95.49000000
   H      8.74300000    43.98000000    94.82000000
   H      7.14300000    44.30000000    94.13000000
   N      6.27300000    42.30000000    94.86000000
   C      6.00300000    40.88000000    94.97000000
   C      7.23300000    40.00000000    94.81000000
   O      8.22300000    40.44000000    94.25000000
   C      4.92300000    40.51000000    93.95000000
   C      3.54300000    41.06000000    94.23000000
   C      2.64300000    40.31000000    94.99000000
   C      3.14300000    42.20000000    93.52000000
   C      1.29300000    40.69000000    95.09000000
   C      1.79300000    42.54000000    93.52000000
   C      0.88300000    41.76000000    94.27000000
   O     -0.40700000    42.18000000    94.33000000
   H      6.05300000    42.74000000    93.98000000
   H      5.60300000    40.74000000    95.98000000
   H      4.81300000    39.44000000    93.84000000
   H      5.31300000    40.88000000    93.00000000
   H      2.93300000    39.47000000    95.60000000
   H      3.83300000    42.78000000    92.92000000
   H      0.57300000    40.24000000    95.76000000
   H      1.39300000    43.32000000    92.89000000
   H     -0.54700000    42.94000000    93.77000000
   N      7.14300000    38.72000000    95.19000000
   C      8.14300000    37.71000000    94.93000000
   C      7.77300000    36.72000000    93.83000000
   O      8.60300000    36.34000000    93.00000000
   C      8.65300000    36.97000000    96.17000000
   C      9.66300000    37.77000000    96.98000000
   C      7.45300000    36.49000000    96.98000000
   C     10.25300000    37.04000000    98.18000000
   H      6.26300000    38.39000000    95.55000000
   H      9.00300000    38.22000000    94.50000000
   H      9.22300000    36.10000000    95.85000000
   H      9.16300000    38.70000000    97.26000000
   H     10.54300000    37.89000000    96.35000000
   H      6.68300000    36.05000000    96.34000000
   H      7.82300000    35.78000000    97.72000000
   H      6.92300000    37.34000000    97.41000000
   H      9.47300000    36.98000000    98.94000000
   H     10.59300000    36.05000000    97.87000000
   H     11.04300000    37.67000000    98.58000000
   N      6.48300000    36.42000000    93.70000000
   C      5.95300000    35.91000000    92.45000000
   C      5.41300000    34.50000000    92.57000000
   O      5.14300000    33.88000000    91.55000000
   C      4.88300000    36.93000000    92.06000000
   O      3.78300000    36.98000000    92.94000000
   H      5.82300000    36.56000000    94.45000000
   H      6.72300000    35.96000000    91.68000000
   H      4.45300000    36.63000000    91.10000000
   H      5.36300000    37.90000000    91.90000000
   H      4.13300000    36.99000000    93.84000000
   N      5.30300000    33.98000000    93.80000000
   C      4.80300000    32.70000000    94.27000000
   C      4.35300000    32.73000000    95.73000000
   O      4.88300000    33.48000000    96.54000000
   C      5.97300000    31.72000000    94.20000000
   H      5.56300000    34.63000000    94.53000000
   H      3.97300000    32.27000000    93.72000000
   H      5.52300000    30.74000000    94.38000000
   H      6.38300000    31.72000000    93.19000000
   H      6.71300000    31.96000000    94.96000000
   N      3.44300000    31.80000000    96.04000000
   C      2.78300000    31.53000000    97.30000000
   C      2.33300000    32.77000000    98.06000000
   O      2.10300000    32.70000000    99.27000000
   C      3.69300000    30.63000000    98.14000000
   H      3.22300000    31.11000000    95.34000000
   H      1.84300000    31.06000000    97.02000000
   H      4.73300000    30.95000000    98.24000000
   H      3.33300000    30.51000000    99.16000000
   H      3.62300000    29.63000000    97.69000000
   N      2.08300000    33.85000000    97.33000000
   C      1.55300000    35.07000000    97.89000000
   C      0.04300000    35.19000000    97.69000000
   O     -0.57700000    35.94000000    98.45000000
   C      2.17300000    36.17000000    97.04000000
   C      3.59300000    36.47000000    97.52000000
   C      4.27300000    37.48000000    96.61000000
   O      4.66300000    38.54000000    97.15000000
   O      4.39300000    37.36000000    95.37000000
   H      2.42300000    33.85000000    96.37000000
   H      1.83300000    35.23000000    98.93000000
   H      1.58300000    37.09000000    97.14000000
   H      2.32300000    35.85000000    96.01000000
   H      4.12300000    35.52000000    97.43000000
   H      3.58300000    36.77000000    98.57000000
   N     -0.54700000    34.51000000    96.71000000
   C     -1.94700000    34.50000000    96.35000000
   H     -2.49000000    35.20000000    96.98500000
   H     -2.05700000    34.79600000    95.30700000
   H     -2.35100000    33.49700000    96.48800000
   H      0.04300000    33.93000000    96.13000000
  Ca      2.92000000    42.80000000    99.39000000
   O      2.20000000    42.84000000    96.89000000
   H      2.44000000    42.36000000    96.10000000
   H      1.66000000    43.56000000    96.58000000

Ca 1.70



