%chk=Ng-31_loop3_37.0.chk
%nprocshared=48
%mem=10GB
%nosave
#b3lyp/svp scf=(tight,noincore) Test 
#IOP(5/87=12) Density=Current Pop=(MK,readradii) iop(6/33=2) iop(6/42=6)

Ng-31_loop3_37.0 

   0   1
   C     63.89000000    65.76000000    32.79000000
   C     64.31000000    65.36000000    34.20000000
   O     63.44000000    64.86000000    34.90000000
   H     63.03800000    66.43700000    32.84400000
   H     64.72000000    66.26000000    32.29100000
   H     63.61100000    64.86900000    32.22700000
   N     65.59000000    65.49000000    34.55000000
   C     66.31000000    64.96000000    35.70000000
   C     65.72000000    65.30000000    37.06000000
   O     65.83000000    64.49000000    37.97000000
   C     67.77000000    65.39000000    35.66000000
   C     68.15000000    66.84000000    35.37000000
   O     68.21000000    67.10000000    34.15000000
   O     68.18000000    67.67000000    36.30000000
   H     66.23000000    65.74000000    33.81000000
   H     66.35000000    63.88000000    35.70000000
   H     68.30000000    64.73000000    34.97000000
   H     68.16000000    65.09000000    36.63000000
   N     65.01000000    66.41000000    37.28000000
   C     64.21000000    66.62000000    38.47000000
   C     64.84000000    66.29000000    39.82000000
   O     65.96000000    66.73000000    40.06000000
   C     63.75000000    68.07000000    38.43000000
   C     62.63000000    68.35000000    39.43000000
   C     62.18000000    69.75000000    39.03000000
   C     60.90000000    70.04000000    39.82000000
   N     60.35000000    71.37000000    39.51000000
   H     65.10000000    67.25000000    36.73000000
   H     63.36000000    65.95000000    38.39000000
   H     63.40000000    68.21000000    37.41000000
   H     64.57000000    68.78000000    38.58000000
   H     62.97000000    68.33000000    40.46000000
   H     61.87000000    67.60000000    39.22000000
   H     61.92000000    69.90000000    37.99000000
   H     62.89000000    70.48000000    39.43000000
   H     61.05000000    69.91000000    40.89000000
   H     60.20000000    69.27000000    39.51000000
   H     59.53000000    71.61000000    40.06000000
   H     61.05000000    72.10000000    39.46000000
   H     59.99000000    71.33000000    38.57000000
   N     64.16000000    65.44000000    40.61000000
   C     64.61000000    64.76000000    41.80000000
   C     64.86000000    63.27000000    41.66000000
   O     64.65000000    62.49000000    42.59000000
   C     63.67000000    65.10000000    42.96000000
   C     62.17000000    64.92000000    42.74000000
   O     61.39000000    65.16000000    43.68000000
   O     61.68000000    64.53000000    41.66000000
   H     63.19000000    65.28000000    40.39000000
   H     65.57000000    65.14000000    42.16000000
   H     63.86000000    66.15000000    43.19000000
   H     64.04000000    64.54000000    43.81000000
   N     65.35000000    62.80000000    40.51000000
   C     65.89000000    61.47000000    40.27000000
   C     67.41000000    61.36000000    40.37000000
   O     68.11000000    62.36000000    40.52000000
   H     65.43000000    63.48000000    39.77000000
   H     65.56000000    61.22000000    39.26000000
   H     65.49000000    60.78000000    41.01000000
   N     67.92000000    60.15000000    40.17000000
   C     67.37000000    58.93000000    39.62000000
   C     68.38000000    58.16000000    38.77000000
   O     69.42000000    57.83000000    39.34000000
   C     66.81000000    58.15000000    40.81000000
   C     66.76000000    56.64000000    40.61000000
   N     66.52000000    55.92000000    41.71000000
   O     66.75000000    56.09000000    39.51000000
   H     68.93000000    60.17000000    40.22000000
   H     66.57000000    59.17000000    38.93000000
   H     65.78000000    58.48000000    40.90000000
   H     67.37000000    58.34000000    41.72000000
   H     66.30000000    56.40000000    42.56000000
   H     66.45000000    54.91000000    41.67000000
   N     68.21000000    57.80000000    37.50000000
   C     67.30000000    58.24000000    36.47000000
   C     65.86000000    57.74000000    36.37000000
   O     65.10000000    58.24000000    35.55000000
   H     69.00000000    57.25000000    37.19000000
   H     67.88000000    58.06000000    35.56000000
   H     67.23000000    59.33000000    36.50000000
   N     65.50000000    56.80000000    37.25000000
   C     64.15000000    56.29000000    37.23000000
   C     63.36000000    57.00000000    38.33000000
   O     63.86000000    57.34000000    39.40000000
   C     64.15000000    54.77000000    37.34000000
   C     64.55000000    54.04000000    36.08000000
   C     63.62000000    53.58000000    35.14000000
   C     65.90000000    53.91000000    35.75000000
   C     63.96000000    52.96000000    33.93000000
   C     66.31000000    53.27000000    34.57000000
   C     65.34000000    52.81000000    33.67000000
   O     65.80000000    52.28000000    32.49000000
   H     66.12000000    56.48000000    37.98000000
   H     63.70000000    56.55000000    36.27000000
   H     63.18000000    54.41000000    37.68000000
   H     64.96000000    54.58000000    38.05000000
   H     62.61000000    53.55000000    35.54000000
   H     66.67000000    54.34000000    36.37000000
   H     63.21000000    52.54000000    33.28000000
   H     67.34000000    53.28000000    34.24000000
   H     66.75000000    52.35000000    32.62000000
   N     62.08000000    57.25000000    38.06000000
   C     61.24000000    58.21000000    38.74000000
   C     60.36000000    57.53000000    39.78000000
   O     59.93000000    56.42000000    39.52000000
   C     60.51000000    59.18000000    37.81000000
   C     61.56000000    60.14000000    37.25000000
   C     59.77000000    58.50000000    36.66000000
   C     61.14000000    61.16000000    36.20000000
   H     61.64000000    56.87000000    37.23000000
   H     61.90000000    58.85000000    39.34000000
   H     59.72000000    59.70000000    38.35000000
   H     62.37000000    59.50000000    36.93000000
   H     62.03000000    60.65000000    38.09000000
   H     59.20000000    59.28000000    36.15000000
   H     60.49000000    58.19000000    35.90000000
   H     59.13000000    57.70000000    37.02000000
   H     61.28000000    60.73000000    35.21000000
   H     60.08000000    61.39000000    36.36000000
   H     61.84000000    61.99000000    36.29000000
   N     60.09000000    58.18000000    40.92000000
   C     59.18000000    57.89000000    42.00000000
   C     57.73000000    57.64000000    41.60000000
   O     57.42000000    57.30000000    40.46000000
   C     59.77000000    56.73000000    42.80000000
   O     60.94000000    57.05000000    43.51000000
   H     60.47000000    59.12000000    40.92000000
   H     59.23000000    58.79000000    42.61000000
   H     60.01000000    55.91000000    42.13000000
   H     59.02000000    56.27000000    43.45000000
   H     61.69000000    57.26000000    42.95000000
   N     56.77000000    57.93000000    42.48000000
   C     55.34000000    57.92000000    42.23000000
   C     54.76000000    59.32000000    42.10000000
   O     55.36000000    60.26000000    42.61000000
   C     54.57000000    57.09000000    43.26000000
   H     57.08000000    58.10000000    43.42000000
   H     55.22000000    57.42000000    41.27000000
   H     53.53000000    57.40000000    43.13000000
   H     54.77000000    56.02000000    43.18000000
   H     54.91000000    57.46000000    44.22000000
   N     53.56000000    59.36000000    41.53000000
   C     52.84000000    60.57000000    41.18000000
   C     53.68000000    61.37000000    40.19000000
   O     53.19000000    62.45000000    39.85000000
   C     52.22000000    61.17000000    42.44000000
   H     53.24000000    58.53000000    41.05000000
   H     52.02000000    60.21000000    40.57000000
   H     51.63000000    62.06000000    42.23000000
   H     51.65000000    60.39000000    42.95000000
   H     53.01000000    61.52000000    43.10000000
   N     54.82000000    60.87000000    39.71000000
   C     55.61000000    61.57000000    38.72000000
   C     55.14000000    61.50000000    37.28000000
   O     55.11000000    62.53000000    36.62000000
   C     57.06000000    61.18000000    39.00000000
   C     58.09000000    62.28000000    38.79000000
   C     58.08000000    63.44000000    39.77000000
   O     59.07000000    64.20000000    39.78000000
   O     57.20000000    63.49000000    40.66000000
   H     54.97000000    59.90000000    39.94000000
   H     55.49000000    62.64000000    38.91000000
   H     57.42000000    60.27000000    38.52000000
   H     57.08000000    60.84000000    40.04000000
   H     57.98000000    62.87000000    37.88000000
   H     59.08000000    61.83000000    38.77000000
   N     54.72000000    60.32000000    36.80000000
   C     54.11000000    60.07000000    35.51000000
   H     53.21500000    60.68300000    35.40700000
   H     54.81600000    60.32300000    34.71900000
   H     53.83900000    59.01700000    35.43300000
   H     54.87000000    59.50000000    37.38000000
  Ca     59.03000000    64.77000000    42.30000000
   O     57.61000000    64.05000000    44.34000000
   H     57.55000000    64.54000000    45.16000000
   H     57.10000000    63.25000000    44.50000000

Ca 1.70



