%chk=Ng-31_loop3_3.0.chk
%nprocshared=48
%mem=10GB
%nosave
#b3lyp/svp scf=(tight,noincore) Test 
#IOP(5/87=12) Density=Current Pop=(MK,readradii) iop(6/33=2) iop(6/42=6)

Ng-31_loop3_3.0 

   0   1
   C      5.51900000    43.26000000    15.43000000
   C      6.88900000    43.19000000    14.77000000
   O      7.24900000    42.27000000    14.03000000
   H      4.77900000    42.79300000    14.78000000
   H      5.54700000    42.73400000    16.38400000
   H      5.24800000    44.30300000    15.59700000
   N      7.72900000    44.22000000    14.87000000
   C      9.11900000    44.24000000    14.46000000
   C      9.94900000    43.32000000    15.35000000
   O      9.61900000    43.18000000    16.52000000
   C      9.72900000    45.64000000    14.52000000
   C      9.37900000    46.67000000    15.58000000
   O      8.31900000    46.55000000    16.24000000
   O     10.22900000    47.58000000    15.73000000
   H      7.35900000    45.03000000    15.35000000
   H      9.15900000    43.88000000    13.43000000
   H      9.36900000    46.07000000    13.59000000
   H     10.81900000    45.57000000    14.49000000
   N     11.03900000    42.73000000    14.84000000
   C     12.06900000    42.03000000    15.58000000
   C     12.55900000    40.69000000    15.04000000
   O     13.08900000    39.86000000    15.78000000
   C     13.18900000    43.04000000    15.81000000
   C     14.02900000    42.66000000    17.02000000
   C     14.32900000    43.92000000    17.83000000
   C     15.06900000    43.62000000    19.13000000
   N     16.24900000    42.75000000    19.08000000
   H     11.28900000    42.90000000    13.88000000
   H     11.66900000    41.79000000    16.56000000
   H     12.85900000    44.05000000    16.04000000
   H     13.81900000    43.09000000    14.92000000
   H     14.98900000    42.24000000    16.71000000
   H     13.45900000    41.97000000    17.64000000
   H     13.36900000    44.36000000    18.05000000
   H     14.96900000    44.59000000    17.25000000
   H     14.34900000    43.11000000    19.78000000
   H     15.27900000    44.50000000    19.74000000
   H     15.93900000    41.81000000    18.85000000
   H     16.93900000    42.98000000    18.37000000
   H     16.69900000    42.66000000    19.98000000
   N     12.19900000    40.45000000    13.78000000
   C     12.59900000    39.21000000    13.14000000
   C     12.46900000    39.34000000    11.63000000
   O     13.35900000    39.22000000    10.79000000
   C     11.87900000    37.97000000    13.66000000
   C     10.49900000    38.23000000    14.25000000
   O      9.64900000    38.88000000    13.61000000
   O     10.18900000    37.76000000    15.37000000
   H     11.76900000    41.21000000    13.28000000
   H     13.68900000    39.11000000    13.17000000
   H     12.50900000    37.46000000    14.39000000
   H     11.77900000    37.21000000    12.89000000
   N     11.20900000    39.58000000    11.24000000
   C     10.62900000    39.51000000     9.92000000
   C      9.18900000    39.99000000     9.80000000
   O      8.47900000    40.09000000    10.80000000
   H     10.52900000    39.81000000    11.95000000
   H     10.70900000    38.47000000     9.59000000
   H     11.21900000    40.01000000     9.16000000
   N      8.66900000    40.19000000     8.58000000
   C      9.05900000    39.65000000     7.29000000
   C      7.79900000    39.16000000     6.60000000
   O      6.80900000    39.89000000     6.61000000
   C      9.84900000    40.65000000     6.44000000
   C      9.72900000    40.33000000     4.96000000
   N      9.50900000    41.40000000     4.18000000
   O      9.77900000    39.22000000     4.44000000
   H      7.79900000    40.69000000     8.53000000
   H      9.63900000    38.73000000     7.38000000
   H     10.90900000    40.56000000     6.68000000
   H      9.51900000    41.67000000     6.61000000
   H      9.66900000    42.30000000     4.60000000
   H      9.27900000    41.21000000     3.22000000
   N      7.62900000    37.94000000     6.09000000
   C      8.56900000    36.84000000     6.18000000
   C      8.45900000    36.15000000     7.54000000
   O      8.37900000    36.80000000     8.58000000
   H      6.75900000    37.78000000     5.61000000
   H      9.61900000    37.06000000     5.98000000
   H      8.27900000    36.10000000     5.44000000
   N      8.47900000    34.82000000     7.52000000
   C      8.11900000    33.95000000     8.62000000
   C      8.92900000    32.66000000     8.57000000
   O      8.93900000    31.98000000     7.55000000
   C      6.64900000    33.55000000     8.53000000
   C      5.54900000    34.53000000     8.17000000
   C      5.04900000    35.39000000     9.16000000
   C      5.08900000    34.70000000     6.86000000
   C      4.00900000    36.29000000     8.89000000
   C      4.04900000    35.59000000     6.56000000
   C      3.47900000    36.38000000     7.58000000
   O      2.58900000    37.35000000     7.23000000
   H      8.66900000    34.39000000     6.63000000
   H      8.36900000    34.56000000     9.49000000
   H      6.35900000    33.09000000     9.47000000
   H      6.60900000    32.79000000     7.75000000
   H      5.38900000    35.28000000    10.17000000
   H      5.50900000    34.10000000     6.07000000
   H      3.65900000    37.02000000     9.61000000
   H      3.83900000    35.77000000     5.52000000
   H      2.31900000    37.22000000     6.32000000
   N      9.64900000    32.39000000     9.66000000
   C     10.54900000    31.26000000     9.67000000
   C      9.78900000    29.96000000     9.50000000
   O     10.36900000    28.99000000     9.01000000
   C     11.39900000    31.23000000    10.94000000
   C     10.63900000    30.78000000    12.19000000
   C     12.75900000    30.56000000    10.72000000
   C     11.49900000    30.73000000    13.45000000
   H      9.49900000    32.95000000    10.49000000
   H     11.28900000    31.28000000     8.87000000
   H     11.71900000    32.25000000    11.13000000
   H     10.27900000    29.77000000    12.01000000
   H      9.79900000    31.47000000    12.30000000
   H     13.29900000    30.99000000     9.88000000
   H     13.32900000    30.83000000    11.61000000
   H     12.69900000    29.47000000    10.78000000
   H     12.22900000    29.92000000    13.39000000
   H     11.98900000    31.70000000    13.49000000
   H     10.89900000    30.62000000    14.36000000
   N      8.49900000    29.94000000     9.86000000
   C      7.52900000    28.88000000     9.70000000
   C      7.05900000    28.21000000    10.98000000
   O      6.22900000    27.30000000    10.96000000
   C      6.37900000    29.36000000     8.82000000
   O      5.95900000    30.54000000     9.46000000
   H      8.02900000    30.82000000    10.01000000
   H      8.03900000    28.11000000     9.13000000
   H      5.58900000    28.61000000     8.79000000
   H      6.66900000    29.59000000     7.80000000
   H      5.16900000    30.77000000     8.96000000
   N      7.56900000    28.66000000    12.13000000
   C      7.04900000    28.28000000    13.43000000
   C      7.00900000    29.41000000    14.45000000
   O      7.98900000    30.16000000    14.51000000
   C      7.95900000    27.17000000    13.97000000
   H      8.09900000    29.52000000    12.17000000
   H      6.05900000    27.89000000    13.22000000
   H      7.77900000    26.27000000    13.39000000
   H      8.97900000    27.46000000    13.74000000
   H      7.87900000    26.98000000    15.04000000
   N      6.03900000    29.51000000    15.36000000
   C      5.86900000    30.54000000    16.37000000
   C      5.77900000    31.99000000    15.92000000
   O      5.89900000    32.97000000    16.65000000
   C      6.64900000    30.25000000    17.64000000
   H      5.32900000    28.80000000    15.27000000
   H      4.81900000    30.61000000    16.66000000
   H      6.46900000    29.25000000    18.03000000
   H      7.72900000    30.32000000    17.47000000
   H      6.28900000    30.92000000    18.42000000
   N      5.46900000    32.09000000    14.62000000
   C      5.38900000    33.38000000    13.96000000
   C      3.96900000    33.92000000    13.90000000
   O      3.60900000    35.08000000    14.08000000
   C      5.90900000    33.36000000    12.52000000
   C      7.30900000    32.76000000    12.42000000
   C      8.50900000    33.60000000    12.82000000
   O      8.69900000    33.82000000    14.03000000
   O      9.18900000    34.13000000    11.92000000
   H      5.35900000    31.21000000    14.15000000
   H      5.96900000    34.16000000    14.45000000
   H      6.02900000    34.37000000    12.14000000
   H      5.19900000    32.70000000    12.03000000
   H      7.45900000    32.47000000    11.38000000
   H      7.24900000    31.78000000    12.91000000
   N      3.00900000    32.99000000    13.87000000
   C      1.59900000    33.19000000    13.59000000
   H      1.06400000    33.35700000    14.52500000
   H      1.47600000    34.05800000    12.94200000
   H      1.19700000    32.30600000    13.09500000
   H      3.37900000    32.10000000    13.59000000
  Ca      7.24000000    38.43000000    12.74000000
   O      7.97000000    36.50000000    14.27000000
   H      8.41000000    36.68000000    15.10000000
   H      8.06000000    35.56000000    14.14000000

Ca 1.70



