%chk=holoCaM_loop3_2.0.chk
%nprocshared=48
%mem=10GB
%nosave
#b3lyp/svp scf=(tight,noincore) Test 
#IOP(5/87=12) Density=Current Pop=(MK,readradii) iop(6/33=2) iop(6/42=6)

holoCaM_loop3_2.0 

   0   1
   C     43.04000000    45.63000000    29.31000000
   C     43.31000000    44.92000000    30.63000000
   O     43.38000000    45.55000000    31.68000000
   H     42.25400000    46.37200000    29.45100000
   H     43.95000000    46.12600000    28.97100000
   H     42.72200000    44.90200000    28.56400000
   N     43.52000000    43.61000000    30.50000000
   C     43.88000000    42.71000000    31.58000000
   C     45.28000000    43.05000000    32.09000000
   O     46.32000000    42.85000000    31.46000000
   C     43.75000000    41.25000000    31.17000000
   C     44.08000000    40.17000000    32.20000000
   O     44.21000000    40.55000000    33.38000000
   O     44.21000000    38.97000000    31.89000000
   H     43.21000000    43.15000000    29.65000000
   H     43.26000000    42.86000000    32.46000000
   H     44.38000000    41.12000000    30.29000000
   H     42.72000000    41.02000000    30.89000000
   N     45.40000000    43.63000000    33.28000000
   C     46.60000000    44.30000000    33.75000000
   C     47.72000000    43.40000000    34.25000000
   O     48.89000000    43.63000000    33.96000000
   C     46.20000000    45.28000000    34.85000000
   C     47.31000000    46.33000000    34.93000000
   C     46.99000000    47.37000000    36.00000000
   C     48.16000000    48.28000000    36.39000000
   N     48.29000000    49.35000000    35.40000000
   H     44.65000000    43.56000000    33.94000000
   H     46.93000000    44.81000000    32.84000000
   H     46.11000000    44.81000000    35.83000000
   H     45.25000000    45.76000000    34.63000000
   H     47.42000000    46.87000000    33.99000000
   H     48.23000000    45.79000000    35.17000000
   H     46.81000000    46.77000000    36.89000000
   H     46.13000000    47.89000000    35.58000000
   H     49.03000000    47.63000000    36.51000000
   H     48.06000000    48.78000000    37.35000000
   H     49.07000000    49.90000000    35.73000000
   H     48.55000000    49.05000000    34.47000000
   H     47.43000000    49.86000000    35.25000000
   N     47.34000000    42.43000000    35.09000000
   C     48.25000000    41.40000000    35.53000000
   C     48.30000000    40.31000000    34.47000000
   O     49.30000000    39.61000000    34.35000000
   C     47.89000000    40.74000000    36.86000000
   C     46.50000000    40.10000000    36.88000000
   O     45.69000000    40.21000000    35.94000000
   O     46.25000000    39.45000000    37.92000000
   H     46.35000000    42.26000000    35.21000000
   H     49.26000000    41.81000000    35.54000000
   H     47.89000000    41.40000000    37.73000000
   H     48.69000000    40.02000000    37.03000000
   N     47.34000000    40.24000000    33.55000000
   C     47.31000000    39.21000000    32.53000000
   C     47.09000000    37.83000000    33.13000000
   O     47.88000000    36.99000000    32.71000000
   H     46.51000000    40.79000000    33.69000000
   H     48.26000000    39.08000000    32.01000000
   H     46.50000000    39.42000000    31.83000000
   N     46.25000000    37.54000000    34.13000000
   C     45.76000000    36.22000000    34.46000000
   C     44.77000000    35.59000000    33.49000000
   O     44.33000000    34.48000000    33.78000000
   C     45.30000000    36.31000000    35.91000000
   C     44.13000000    37.27000000    36.07000000
   N     43.77000000    37.53000000    37.33000000
   O     43.58000000    37.86000000    35.15000000
   H     45.68000000    38.33000000    34.37000000
   H     46.62000000    35.54000000    34.43000000
   H     46.14000000    36.50000000    36.57000000
   H     44.81000000    35.37000000    36.17000000
   H     44.32000000    37.04000000    38.02000000
   H     43.07000000    38.21000000    37.59000000
   N     44.30000000    36.33000000    32.48000000
   C     43.38000000    35.85000000    31.47000000
   C     41.94000000    36.36000000    31.52000000
   O     41.15000000    35.99000000    30.66000000
   H     44.53000000    37.31000000    32.41000000
   H     43.38000000    34.76000000    31.46000000
   H     43.75000000    36.17000000    30.49000000
   N     41.70000000    37.30000000    32.44000000
   C     40.37000000    37.75000000    32.81000000
   C     40.33000000    39.24000000    33.10000000
   O     41.10000000    39.72000000    33.93000000
   C     39.87000000    37.11000000    34.10000000
   C     40.40000000    35.74000000    34.45000000
   C     41.12000000    35.53000000    35.63000000
   C     40.11000000    34.62000000    33.65000000
   C     41.65000000    34.27000000    35.90000000
   C     40.61000000    33.34000000    33.90000000
   C     41.44000000    33.18000000    35.03000000
   O     42.01000000    32.01000000    35.43000000
   H     42.50000000    37.59000000    32.97000000
   H     39.76000000    37.47000000    31.95000000
   H     38.80000000    36.94000000    34.05000000
   H     39.99000000    37.77000000    34.96000000
   H     41.31000000    36.35000000    36.32000000
   H     39.52000000    34.79000000    32.76000000
   H     42.38000000    34.13000000    36.68000000
   H     40.34000000    32.54000000    33.23000000
   H     41.69000000    31.39000000    34.77000000
   N     39.44000000    40.05000000    32.52000000
   C     39.12000000    41.41000000    32.89000000
   C     38.28000000    41.33000000    34.15000000
   O     37.19000000    40.75000000    34.07000000
   C     38.56000000    42.15000000    31.67000000
   C     39.72000000    42.28000000    30.69000000
   C     37.98000000    43.52000000    31.98000000
   C     39.17000000    42.49000000    29.28000000
   H     38.77000000    39.60000000    31.91000000
   H     40.10000000    41.83000000    33.14000000
   H     37.79000000    41.56000000    31.17000000
   H     40.23000000    41.32000000    30.62000000
   H     40.36000000    43.09000000    31.04000000
   H     37.85000000    44.04000000    31.03000000
   H     37.10000000    43.45000000    32.62000000
   H     38.75000000    44.01000000    32.59000000
   H     40.05000000    42.51000000    28.64000000
   H     38.48000000    41.68000000    29.05000000
   H     38.60000000    43.42000000    29.21000000
   N     38.75000000    41.91000000    35.25000000
   C     37.99000000    42.23000000    36.44000000
   C     37.24000000    43.54000000    36.27000000
   O     37.49000000    44.25000000    35.29000000
   C     38.90000000    42.22000000    37.66000000
   O     39.83000000    43.28000000    37.66000000
   H     39.74000000    42.13000000    35.27000000
   H     37.28000000    41.41000000    36.55000000
   H     39.40000000    41.25000000    37.67000000
   H     38.23000000    42.39000000    38.50000000
   H     40.39000000    43.09000000    36.91000000
   N     36.36000000    43.89000000    37.21000000
   C     35.75000000    45.20000000    37.10000000
   C     36.70000000    46.38000000    37.17000000
   O     36.52000000    47.38000000    36.49000000
   C     34.67000000    45.33000000    38.17000000
   H     36.29000000    43.37000000    38.07000000
   H     35.19000000    45.28000000    36.16000000
   H     34.16000000    46.27000000    37.93000000
   H     33.98000000    44.50000000    38.08000000
   H     35.19000000    45.26000000    39.12000000
   N     37.73000000    46.27000000    38.02000000
   C     38.86000000    47.16000000    38.22000000
   C     39.60000000    47.49000000    36.93000000
   O     40.13000000    48.58000000    36.71000000
   C     39.87000000    46.56000000    39.19000000
   H     37.76000000    45.41000000    38.54000000
   H     38.53000000    48.13000000    38.60000000
   H     40.19000000    45.61000000    38.76000000
   H     40.68000000    47.29000000    39.25000000
   H     39.39000000    46.41000000    40.16000000
   N     39.63000000    46.51000000    36.03000000
   C     40.30000000    46.63000000    34.74000000
   C     39.26000000    46.95000000    33.68000000
   O     39.54000000    47.68000000    32.73000000
   C     40.94000000    45.29000000    34.41000000
   C     42.04000000    44.89000000    35.39000000
   C     42.35000000    43.40000000    35.36000000
   O     43.52000000    42.96000000    35.27000000
   O     41.46000000    42.59000000    35.70000000
   H     39.38000000    45.62000000    36.42000000
   H     40.98000000    47.48000000    34.68000000
   H     41.40000000    45.37000000    33.43000000
   H     40.16000000    44.54000000    34.34000000
   H     41.69000000    45.09000000    36.40000000
   H     42.93000000    45.47000000    35.15000000
   N     37.97000000    46.72000000    33.92000000
   C     36.93000000    47.29000000    33.09000000
   H     36.08300000    47.57400000    33.71400000
   H     37.31500000    48.17200000    32.57800000
   H     36.60700000    46.55400000    32.35400000
   H     37.67000000    46.10000000    34.67000000
  Ca     43.03000000    40.47000000    35.62000000
   O     41.36000000    39.33000000    37.39000000
   H     40.47000000    38.98000000    37.35000000
   H     41.58000000    39.34000000    38.32000000

Ca 1.70



