%chk=holoCaM_loop3_28.0.chk
%nprocshared=48
%mem=10GB
%nosave
#b3lyp/svp scf=(tight,noincore) Test 
#IOP(5/87=12) Density=Current Pop=(MK,readradii) iop(6/33=2) iop(6/42=6)

holoCaM_loop3_28.0 

   0   1
   C     38.88000000    43.69000000    25.33000000
   C     38.99000000    42.50000000    26.27000000
   O     38.37000000    42.44000000    27.33000000
   H     38.25200000    44.45500000    25.78600000
   H     39.87300000    44.09900000    25.14300000
   H     38.43500000    43.37000000    24.38800000
   N     39.88000000    41.59000000    25.88000000
   C     40.40000000    40.48000000    26.65000000
   C     41.50000000    41.01000000    27.56000000
   O     42.68000000    41.04000000    27.20000000
   C     40.92000000    39.31000000    25.82000000
   C     41.55000000    38.16000000    26.59000000
   O     41.22000000    38.09000000    27.80000000
   O     42.35000000    37.36000000    26.06000000
   H     40.30000000    41.68000000    24.97000000
   H     39.58000000    40.17000000    27.29000000
   H     41.62000000    39.72000000    25.09000000
   H     40.07000000    38.97000000    25.22000000
   N     41.07000000    41.48000000    28.74000000
   C     41.86000000    42.31000000    29.62000000
   C     43.03000000    41.53000000    30.22000000
   O     44.14000000    42.04000000    30.25000000
   C     41.05000000    42.96000000    30.74000000
   C     40.13000000    44.07000000    30.23000000
   C     40.09000000    45.12000000    31.33000000
   C     39.22000000    46.34000000    31.03000000
   N     39.96000000    47.09000000    30.01000000
   H     40.09000000    41.28000000    28.83000000
   H     42.31000000    43.07000000    28.97000000
   H     41.75000000    43.41000000    31.44000000
   H     40.42000000    42.21000000    31.21000000
   H     39.22000000    43.61000000    29.85000000
   H     40.54000000    44.54000000    29.34000000
   H     41.08000000    45.55000000    31.48000000
   H     39.70000000    44.70000000    32.26000000
   H     39.06000000    46.86000000    31.98000000
   H     38.32000000    45.96000000    30.54000000
   H     39.35000000    47.83000000    29.69000000
   H     40.76000000    47.48000000    30.49000000
   H     40.37000000    46.58000000    29.25000000
   N     42.77000000    40.27000000    30.58000000
   C     43.80000000    39.41000000    31.13000000
   C     44.60000000    38.67000000    30.06000000
   O     45.62000000    38.07000000    30.40000000
   C     43.15000000    38.52000000    32.18000000
   C     42.03000000    37.62000000    31.68000000
   O     41.62000000    36.66000000    32.38000000
   O     41.46000000    37.90000000    30.61000000
   H     41.81000000    39.98000000    30.65000000
   H     44.45000000    39.96000000    31.80000000
   H     42.81000000    39.21000000    32.95000000
   H     43.96000000    37.93000000    32.62000000
   N     44.19000000    38.69000000    28.79000000
   C     45.00000000    38.07000000    27.75000000
   C     44.96000000    36.56000000    27.58000000
   O     45.97000000    36.04000000    27.11000000
   H     43.39000000    39.23000000    28.49000000
   H     46.01000000    38.40000000    28.00000000
   H     44.76000000    38.54000000    26.80000000
   N     43.86000000    35.92000000    27.97000000
   C     43.64000000    34.49000000    28.10000000
   C     43.08000000    33.83000000    26.85000000
   O     43.00000000    32.61000000    26.79000000
   C     42.81000000    34.13000000    29.33000000
   C     41.29000000    34.05000000    29.18000000
   N     40.69000000    32.94000000    29.63000000
   O     40.66000000    34.96000000    28.65000000
   H     43.08000000    36.49000000    28.26000000
   H     44.64000000    34.11000000    28.31000000
   H     43.04000000    34.88000000    30.09000000
   H     43.18000000    33.26000000    29.87000000
   H     41.23000000    32.18000000    30.02000000
   H     39.70000000    32.90000000    29.47000000
   N     42.66000000    34.60000000    25.85000000
   C     42.07000000    34.13000000    24.61000000
   C     40.56000000    34.10000000    24.46000000
   O     40.05000000    33.47000000    23.53000000
   H     42.67000000    35.61000000    25.96000000
   H     42.32000000    33.08000000    24.44000000
   H     42.50000000    34.82000000    23.88000000
   N     39.87000000    34.74000000    25.41000000
   C     38.44000000    34.98000000    25.39000000
   C     37.94000000    36.35000000    25.82000000
   O     38.57000000    36.97000000    26.68000000
   C     37.74000000    33.85000000    26.13000000
   C     38.20000000    32.45000000    25.78000000
   C     39.13000000    31.77000000    26.58000000
   C     37.88000000    31.99000000    24.50000000
   C     39.78000000    30.62000000    26.13000000
   C     38.51000000    30.84000000    24.02000000
   C     39.37000000    30.12000000    24.87000000
   O     39.93000000    28.96000000    24.41000000
   H     40.41000000    35.18000000    26.14000000
   H     38.13000000    34.92000000    24.34000000
   H     36.66000000    33.90000000    25.99000000
   H     37.91000000    34.07000000    27.19000000
   H     39.28000000    32.18000000    27.57000000
   H     37.18000000    32.54000000    23.89000000
   H     40.47000000    30.03000000    26.71000000
   H     38.32000000    30.51000000    23.01000000
   H     39.50000000    28.66000000    23.60000000
   N     36.78000000    36.80000000    25.33000000
   C     36.03000000    37.91000000    25.87000000
   C     34.75000000    37.49000000    26.58000000
   O     33.95000000    36.84000000    25.92000000
   C     35.64000000    38.86000000    24.74000000
   C     36.85000000    39.58000000    24.17000000
   C     34.60000000    39.87000000    25.21000000
   C     36.53000000    40.39000000    22.92000000
   H     36.27000000    36.16000000    24.73000000
   H     36.68000000    38.50000000    26.53000000
   H     35.19000000    38.28000000    23.93000000
   H     37.67000000    38.87000000    24.05000000
   H     37.22000000    40.25000000    24.94000000
   H     34.32000000    40.60000000    24.45000000
   H     33.65000000    39.36000000    25.40000000
   H     34.93000000    40.37000000    26.12000000
   H     35.90000000    39.78000000    22.26000000
   H     36.03000000    41.33000000    23.14000000
   H     37.50000000    40.48000000    22.43000000
   N     34.54000000    37.90000000    27.84000000
   C     33.34000000    37.66000000    28.61000000
   C     32.33000000    38.77000000    28.37000000
   O     32.71000000    39.88000000    28.02000000
   C     33.63000000    37.38000000    30.09000000
   O     32.37000000    37.01000000    30.62000000
   H     35.31000000    38.36000000    28.31000000
   H     32.92000000    36.78000000    28.12000000
   H     33.99000000    38.26000000    30.61000000
   H     34.27000000    36.50000000    30.20000000
   H     32.52000000    36.50000000    31.42000000
   N     31.06000000    38.51000000    28.69000000
   C     30.10000000    39.57000000    28.88000000
   C     30.53000000    40.60000000    29.92000000
   O     30.42000000    41.80000000    29.71000000
   C     28.75000000    38.95000000    29.23000000
   H     30.80000000    37.55000000    28.88000000
   H     30.05000000    40.15000000    27.96000000
   H     28.36000000    38.32000000    28.44000000
   H     28.70000000    38.55000000    30.24000000
   H     27.95000000    39.70000000    29.23000000
   N     31.10000000    40.13000000    31.03000000
   C     31.51000000    41.13000000    32.00000000
   C     32.70000000    42.00000000    31.61000000
   O     32.82000000    43.13000000    32.08000000
   C     31.81000000    40.51000000    33.36000000
   H     31.01000000    39.14000000    31.17000000
   H     30.68000000    41.81000000    32.19000000
   H     30.91000000    40.08000000    33.79000000
   H     32.52000000    39.71000000    33.18000000
   H     32.23000000    41.31000000    33.97000000
   N     33.49000000    41.58000000    30.63000000
   C     34.59000000    42.30000000    30.03000000
   C     34.06000000    43.37000000    29.08000000
   O     34.76000000    44.38000000    28.92000000
   C     35.69000000    41.43000000    29.42000000
   C     36.76000000    40.91000000    30.38000000
   C     37.66000000    39.86000000    29.75000000
   O     37.23000000    38.96000000    28.99000000
   O     38.87000000    39.78000000    30.04000000
   H     33.16000000    40.71000000    30.24000000
   H     35.17000000    42.86000000    30.76000000
   H     36.20000000    42.00000000    28.64000000
   H     35.19000000    40.66000000    28.84000000
   H     36.35000000    40.47000000    31.29000000
   H     37.34000000    41.80000000    30.63000000
   N     32.88000000    43.20000000    28.50000000
   C     32.21000000    44.23000000    27.73000000
   H     31.29000000    44.52100000    28.23700000
   H     32.86300000    45.09800000    27.63800000
   H     31.97200000    43.84600000    26.73800000
   H     32.36000000    42.36000000    28.69000000
  Ca     39.29000000    37.29000000    29.27000000
   O     36.99000000    36.28000000    30.14000000
   H     36.42000000    35.61000000    29.75000000
   H     36.41000000    36.82000000    30.67000000

Ca 1.70



