%chk=holoCaM_loop3_19.0.chk
%nprocshared=48
%mem=10GB
%nosave
#b3lyp/svp scf=(tight,noincore) Test 
#IOP(5/87=12) Density=Current Pop=(MK,readradii) iop(6/33=2) iop(6/42=6)

holoCaM_loop3_19.0 

   0   1
   C     36.90000000    47.79000000    42.83000000
   C     37.07000000    47.56000000    44.32000000
   O     36.04000000    47.43000000    44.97000000
   H     36.26000000    48.65700000    42.66800000
   H     37.87500000    47.96800000    42.37600000
   H     36.44200000    46.91100000    42.37600000
   N     38.35000000    47.50000000    44.72000000
   C     38.76000000    47.48000000    46.11000000
   C     38.18000000    48.60000000    46.96000000
   O     38.41000000    49.78000000    46.72000000
   C     40.28000000    47.61000000    46.10000000
   C     41.00000000    47.28000000    47.40000000
   O     40.32000000    46.96000000    48.39000000
   O     42.25000000    47.33000000    47.45000000
   H     38.99000000    47.72000000    43.98000000
   H     38.55000000    46.54000000    46.63000000
   H     40.66000000    48.56000000    45.72000000
   H     40.59000000    46.83000000    45.40000000
   N     37.50000000    48.30000000    48.07000000
   C     36.69000000    49.23000000    48.82000000
   C     37.55000000    50.02000000    49.80000000
   O     37.44000000    51.24000000    49.89000000
   C     35.60000000    48.35000000    49.45000000
   C     34.50000000    49.21000000    50.07000000
   C     33.41000000    48.27000000    50.57000000
   C     32.35000000    49.08000000    51.32000000
   N     31.47000000    49.91000000    50.49000000
   H     37.37000000    47.31000000    48.23000000
   H     36.21000000    49.89000000    48.10000000
   H     36.10000000    47.64000000    50.10000000
   H     35.11000000    47.83000000    48.63000000
   H     34.17000000    49.87000000    49.27000000
   H     34.94000000    49.94000000    50.74000000
   H     33.82000000    47.55000000    51.28000000
   H     32.82000000    47.80000000    49.78000000
   H     32.89000000    49.69000000    52.05000000
   H     31.64000000    48.42000000    51.81000000
   H     31.97000000    50.56000000    49.91000000
   H     31.03000000    49.29000000    49.82000000
   H     30.86000000    50.41000000    51.12000000
   N     38.44000000    49.37000000    50.55000000
   C     39.33000000    49.97000000    51.52000000
   C     40.65000000    50.40000000    50.90000000
   O     41.40000000    51.16000000    51.50000000
   C     39.61000000    49.12000000    52.77000000
   C     40.06000000    47.69000000    52.51000000
   O     40.42000000    47.33000000    51.37000000
   O     39.92000000    46.92000000    53.49000000
   H     38.47000000    48.36000000    50.46000000
   H     38.87000000    50.88000000    51.91000000
   H     38.77000000    49.14000000    53.46000000
   H     40.36000000    49.69000000    53.31000000
   N     40.97000000    49.81000000    49.74000000
   C     42.23000000    50.01000000    49.04000000
   C     43.34000000    49.12000000    49.57000000
   O     44.49000000    49.54000000    49.49000000
   H     40.27000000    49.15000000    49.44000000
   H     42.52000000    51.06000000    49.13000000
   H     42.18000000    49.86000000    47.96000000
   N     42.94000000    48.03000000    50.24000000
   C     43.96000000    47.14000000    50.75000000
   C     44.82000000    46.28000000    49.84000000
   O     45.81000000    45.67000000    50.24000000
   C     43.39000000    46.28000000    51.88000000
   C     42.84000000    44.92000000    51.46000000
   N     43.13000000    43.86000000    52.20000000
   O     42.20000000    44.81000000    50.41000000
   H     41.97000000    47.79000000    50.35000000
   H     44.65000000    47.84000000    51.22000000
   H     42.62000000    46.78000000    52.46000000
   H     44.04000000    46.18000000    52.75000000
   H     43.75000000    43.97000000    52.99000000
   H     42.67000000    42.96000000    52.25000000
   N     44.50000000    46.14000000    48.55000000
   C     45.16000000    45.33000000    47.55000000
   C     44.40000000    44.08000000    47.10000000
   O     44.97000000    43.19000000    46.48000000
   H     43.75000000    46.74000000    48.25000000
   H     46.06000000    44.98000000    48.06000000
   H     45.22000000    45.91000000    46.63000000
   N     43.16000000    43.92000000    47.56000000
   C     42.31000000    42.76000000    47.34000000
   C     40.83000000    43.09000000    47.22000000
   O     40.39000000    44.10000000    47.77000000
   C     42.47000000    41.73000000    48.46000000
   C     43.87000000    41.21000000    48.69000000
   C     44.51000000    41.68000000    49.85000000
   C     44.46000000    40.25000000    47.87000000
   C     45.70000000    41.07000000    50.26000000
   C     45.72000000    39.75000000    48.22000000
   C     46.37000000    40.20000000    49.39000000
   O     47.62000000    39.74000000    49.68000000
   H     42.78000000    44.58000000    48.23000000
   H     42.63000000    42.27000000    46.42000000
   H     41.80000000    40.88000000    48.35000000
   H     42.22000000    42.09000000    49.45000000
   H     44.13000000    42.45000000    50.50000000
   H     44.01000000    40.00000000    46.91000000
   H     46.14000000    41.45000000    51.18000000
   H     46.24000000    39.07000000    47.58000000
   H     48.08000000    39.44000000    48.89000000
   N     40.09000000    42.29000000    46.44000000
   C     38.66000000    42.51000000    46.30000000
   C     37.88000000    41.35000000    46.89000000
   O     38.11000000    40.24000000    46.41000000
   C     38.29000000    42.74000000    44.84000000
   C     39.08000000    43.85000000    44.14000000
   C     36.78000000    42.94000000    44.69000000
   C     38.97000000    43.74000000    42.62000000
   H     40.50000000    41.65000000    45.78000000
   H     38.33000000    43.38000000    46.87000000
   H     38.53000000    41.80000000    44.35000000
   H     40.14000000    43.80000000    44.39000000
   H     38.76000000    44.85000000    44.44000000
   H     36.52000000    43.99000000    44.77000000
   H     36.38000000    42.63000000    43.73000000
   H     36.13000000    42.39000000    45.38000000
   H     37.93000000    43.78000000    42.30000000
   H     39.58000000    44.49000000    42.11000000
   H     39.17000000    42.72000000    42.30000000
   N     36.93000000    41.65000000    47.76000000
   C     36.01000000    40.66000000    48.29000000
   C     34.59000000    40.89000000    47.80000000
   O     34.32000000    41.92000000    47.18000000
   C     36.07000000    40.57000000    49.81000000
   O     35.73000000    41.74000000    50.51000000
   H     36.94000000    42.59000000    48.13000000
   H     36.23000000    39.68000000    47.85000000
   H     37.08000000    40.40000000    50.19000000
   H     35.47000000    39.75000000    50.19000000
   H     36.34000000    42.45000000    50.28000000
   N     33.58000000    40.06000000    48.06000000
   C     32.27000000    40.10000000    47.44000000
   C     31.40000000    41.28000000    47.84000000
   O     30.71000000    41.83000000    46.98000000
   C     31.60000000    38.76000000    47.69000000
   H     33.73000000    39.24000000    48.64000000
   H     32.34000000    40.32000000    46.37000000
   H     32.13000000    37.96000000    47.16000000
   H     31.65000000    38.57000000    48.76000000
   H     30.55000000    38.84000000    47.42000000
   N     31.41000000    41.76000000    49.08000000
   C     30.65000000    42.95000000    49.45000000
   C     31.18000000    44.15000000    48.68000000
   O     30.48000000    45.15000000    48.53000000
   C     30.68000000    43.13000000    50.96000000
   H     32.01000000    41.35000000    49.78000000
   H     29.62000000    42.72000000    49.17000000
   H     30.34000000    42.18000000    51.37000000
   H     31.69000000    43.41000000    51.27000000
   H     30.01000000    43.96000000    51.18000000
   N     32.44000000    44.19000000    48.25000000
   C     33.07000000    45.26000000    47.49000000
   C     32.68000000    45.26000000    46.02000000
   O     32.50000000    46.31000000    45.41000000
   C     34.59000000    45.24000000    47.53000000
   C     35.08000000    44.93000000    48.95000000
   C     36.59000000    44.74000000    49.03000000
   O     37.18000000    43.80000000    49.59000000
   O     37.41000000    45.54000000    48.54000000
   H     33.03000000    43.40000000    48.46000000
   H     32.67000000    46.21000000    47.85000000
   H     34.97000000    46.24000000    47.35000000
   H     34.95000000    44.58000000    46.74000000
   H     34.65000000    43.99000000    49.30000000
   H     34.94000000    45.78000000    49.62000000
   N     32.55000000    44.11000000    45.36000000
   C     31.91000000    43.91000000    44.08000000
   H     31.01300000    44.52700000    44.02200000
   H     32.59600000    44.19200000    43.28200000
   H     31.63600000    42.86100000    43.97000000
   H     32.71000000    43.23000000    45.85000000
  Ca     39.47000000    45.17000000    50.10000000
   O     39.61000000    44.38000000    52.75000000
   H     39.58000000    43.76000000    53.47000000
   H     39.58000000    45.24000000    53.16000000

Ca 1.70



