%chk=holoCaM_loop3_14.0.chk
%nprocshared=48
%mem=10GB
%nosave
#b3lyp/svp scf=(tight,noincore) Test 
#IOP(5/87=12) Density=Current Pop=(MK,readradii) iop(6/33=2) iop(6/42=6)

holoCaM_loop3_14.0 

   0   1
   C     62.17000000    48.75000000    35.40000000
   C     62.52000000    47.38000000    35.97000000
   O     61.80000000    46.87000000    36.83000000
   H     61.26800000    49.12500000    35.88400000
   H     62.99300000    49.44100000    35.58200000
   H     61.99700000    48.66400000    34.32700000
   N     63.56000000    46.69000000    35.50000000
   C     64.07000000    45.44000000    36.02000000
   C     65.11000000    45.70000000    37.10000000
   O     66.23000000    46.18000000    36.95000000
   C     64.43000000    44.55000000    34.83000000
   C     64.90000000    43.16000000    35.22000000
   O     64.54000000    42.74000000    36.35000000
   O     65.52000000    42.48000000    34.38000000
   H     64.12000000    47.25000000    34.87000000
   H     63.25000000    44.91000000    36.49000000
   H     65.28000000    45.04000000    34.34000000
   H     63.66000000    44.48000000    34.06000000
   N     64.62000000    45.51000000    38.33000000
   C     65.29000000    46.01000000    39.52000000
   C     66.46000000    45.08000000    39.82000000
   O     67.53000000    45.55000000    40.22000000
   C     64.35000000    46.25000000    40.69000000
   C     64.81000000    47.34000000    41.66000000
   C     64.57000000    48.74000000    41.11000000
   C     65.08000000    49.88000000    41.99000000
   N     64.80000000    51.20000000    41.42000000
   H     63.64000000    45.31000000    38.24000000
   H     65.73000000    46.95000000    39.18000000
   H     64.28000000    45.32000000    41.27000000
   H     63.37000000    46.52000000    40.30000000
   H     65.90000000    47.24000000    41.75000000
   H     64.29000000    47.31000000    42.62000000
   H     63.50000000    48.85000000    40.93000000
   H     65.09000000    48.67000000    40.16000000
   H     66.16000000    49.85000000    42.10000000
   H     64.57000000    49.84000000    42.95000000
   H     65.10000000    51.21000000    40.45000000
   H     63.82000000    51.43000000    41.42000000
   H     65.27000000    51.90000000    41.98000000
   N     66.18000000    43.79000000    39.67000000
   C     67.13000000    42.72000000    39.90000000
   C     68.04000000    42.40000000    38.72000000
   O     69.13000000    41.83000000    38.81000000
   C     66.50000000    41.45000000    40.46000000
   C     65.17000000    41.09000000    39.80000000
   O     65.13000000    40.58000000    38.66000000
   O     64.11000000    41.42000000    40.37000000
   H     65.26000000    43.58000000    39.31000000
   H     67.79000000    43.19000000    40.63000000
   H     66.37000000    41.68000000    41.51000000
   H     67.18000000    40.60000000    40.40000000
   N     67.68000000    42.89000000    37.54000000
   C     68.55000000    42.75000000    36.39000000
   C     68.56000000    41.41000000    35.67000000
   O     69.46000000    41.04000000    34.92000000
   H     66.94000000    43.58000000    37.52000000
   H     69.52000000    43.13000000    36.70000000
   H     68.25000000    43.47000000    35.62000000
   N     67.48000000    40.63000000    35.72000000
   C     67.42000000    39.28000000    35.19000000
   C     67.13000000    39.16000000    33.70000000
   O     67.31000000    38.10000000    33.11000000
   C     66.61000000    38.40000000    36.13000000
   C     65.09000000    38.47000000    36.02000000
   N     64.38000000    37.34000000    35.95000000
   O     64.50000000    39.55000000    36.10000000
   H     66.73000000    40.98000000    36.29000000
   H     68.39000000    38.79000000    35.26000000
   H     66.84000000    38.57000000    37.19000000
   H     66.89000000    37.41000000    35.80000000
   H     64.85000000    36.45000000    35.90000000
   H     63.37000000    37.39000000    35.93000000
   N     66.66000000    40.24000000    33.08000000
   C     66.02000000    40.33000000    31.78000000
   C     64.52000000    40.49000000    31.65000000
   O     64.04000000    40.28000000    30.53000000
   H     66.65000000    41.03000000    33.71000000
   H     66.37000000    39.41000000    31.31000000
   H     66.39000000    41.24000000    31.30000000
   N     63.73000000    40.60000000    32.72000000
   C     62.34000000    40.19000000    32.75000000
   C     61.58000000    40.94000000    33.84000000
   O     62.14000000    41.41000000    34.83000000
   C     62.20000000    38.69000000    33.01000000
   C     62.84000000    37.74000000    32.03000000
   C     64.19000000    37.40000000    32.23000000
   C     62.04000000    37.16000000    31.04000000
   C     64.75000000    36.48000000    31.34000000
   C     62.63000000    36.22000000    30.19000000
   C     64.01000000    35.94000000    30.27000000
   O     64.60000000    35.17000000    29.30000000
   H     64.04000000    41.12000000    33.53000000
   H     61.74000000    40.29000000    31.85000000
   H     61.14000000    38.45000000    33.08000000
   H     62.64000000    38.53000000    33.99000000
   H     64.74000000    37.74000000    33.10000000
   H     60.98000000    37.30000000    30.97000000
   H     65.81000000    36.24000000    31.33000000
   H     62.05000000    35.72000000    29.43000000
   H     63.96000000    34.93000000    28.63000000
   N     60.29000000    41.12000000    33.56000000
   C     59.42000000    42.00000000    34.32000000
   C     58.38000000    41.11000000    35.00000000
   O     57.82000000    40.26000000    34.30000000
   C     58.78000000    43.00000000    33.37000000
   C     59.74000000    44.08000000    32.88000000
   C     57.54000000    43.69000000    33.94000000
   C     60.41000000    45.05000000    33.86000000
   H     59.98000000    40.61000000    32.74000000
   H     59.97000000    42.51000000    35.11000000
   H     58.46000000    42.40000000    32.52000000
   H     59.35000000    44.69000000    32.07000000
   H     60.63000000    43.65000000    32.42000000
   H     57.79000000    44.34000000    34.78000000
   H     57.09000000    44.30000000    33.15000000
   H     56.74000000    43.05000000    34.30000000
   H     59.67000000    45.37000000    34.60000000
   H     61.11000000    44.58000000    34.54000000
   H     60.88000000    45.90000000    33.37000000
   N     58.19000000    41.36000000    36.30000000
   C     57.27000000    40.61000000    37.14000000
   C     56.24000000    41.54000000    37.78000000
   O     56.20000000    42.72000000    37.44000000
   C     58.05000000    39.89000000    38.23000000
   O     58.84000000    38.96000000    37.52000000
   H     58.70000000    42.14000000    36.68000000
   H     56.84000000    39.74000000    36.66000000
   H     57.40000000    39.48000000    38.99000000
   H     58.78000000    40.56000000    38.69000000
   H     58.71000000    38.10000000    37.93000000
   N     55.34000000    41.00000000    38.61000000
   C     54.16000000    41.71000000    39.07000000
   C     54.43000000    43.00000000    39.83000000
   O     54.00000000    44.08000000    39.44000000
   C     53.51000000    40.66000000    39.97000000
   H     55.47000000    40.03000000    38.86000000
   H     53.49000000    41.93000000    38.25000000
   H     52.64000000    41.06000000    40.49000000
   H     53.33000000    39.76000000    39.39000000
   H     54.23000000    40.43000000    40.76000000
   N     55.36000000    42.97000000    40.80000000
   C     55.79000000    44.12000000    41.57000000
   C     56.43000000    45.13000000    40.63000000
   O     56.43000000    46.32000000    40.92000000
   C     56.73000000    43.69000000    42.69000000
   H     55.87000000    42.10000000    40.90000000
   H     54.94000000    44.68000000    41.97000000
   H     56.95000000    44.46000000    43.42000000
   H     56.28000000    42.85000000    43.22000000
   H     57.72000000    43.57000000    42.25000000
   N     57.13000000    44.59000000    39.62000000
   C     57.88000000    45.51000000    38.79000000
   C     56.97000000    46.29000000    37.85000000
   O     57.12000000    47.49000000    37.66000000
   C     58.90000000    44.68000000    38.01000000
   C     59.91000000    44.08000000    38.99000000
   C     60.95000000    43.31000000    38.19000000
   O     62.15000000    43.53000000    38.49000000
   O     60.62000000    42.42000000    37.38000000
   H     57.31000000    43.60000000    39.51000000
   H     58.41000000    46.28000000    39.34000000
   H     59.44000000    45.24000000    37.25000000
   H     58.50000000    43.79000000    37.54000000
   H     59.44000000    43.39000000    39.69000000
   H     60.38000000    44.90000000    39.53000000
   N     55.85000000    45.66000000    37.47000000
   C     54.85000000    46.21000000    36.58000000
   H     53.99100000    46.54400000    37.16200000
   H     55.27200000    47.05600000    36.03800000
   H     54.53300000    45.44500000    35.87100000
   H     55.82000000    44.67000000    37.67000000
  Ca     62.92000000    41.15000000    37.41000000
   O     61.86000000    40.12000000    39.64000000
   H     62.55000000    40.44000000    40.22000000
   H     61.20000000    39.76000000    40.23000000

Ca 1.70



