%chk=holoCaM_loop3_6.0.chk
%nprocshared=48
%mem=10GB
%nosave
#b3lyp/svp scf=(tight,noincore) Test 
#IOP(5/87=12) Density=Current Pop=(MK,readradii) iop(6/33=2) iop(6/42=6)

holoCaM_loop3_6.0 

   0   1
   C     49.29000000    41.03000000    23.16000000
   C     49.78000000    40.37000000    24.44000000
   O     49.56000000    40.75000000    25.59000000
   H     48.41100000    41.63700000    23.37800000
   H     50.07700000    41.66500000    22.75300000
   H     49.02900000    40.26200000    22.43200000
   N     50.49000000    39.25000000    24.25000000
   C     51.20000000    38.39000000    25.18000000
   C     52.60000000    38.92000000    25.43000000
   O     53.29000000    39.30000000    24.49000000
   C     51.20000000    36.95000000    24.67000000
   C     51.94000000    35.95000000    25.55000000
   O     52.14000000    36.20000000    26.76000000
   O     52.51000000    35.03000000    24.93000000
   H     50.57000000    39.02000000    23.27000000
   H     50.69000000    38.51000000    26.14000000
   H     51.63000000    36.95000000    23.67000000
   H     50.14000000    36.69000000    24.59000000
   N     53.09000000    39.02000000    26.67000000
   C     54.24000000    39.84000000    26.97000000
   C     55.35000000    39.01000000    27.61000000
   O     56.51000000    39.33000000    27.34000000
   C     53.81000000    41.08000000    27.75000000
   C     53.02000000    42.09000000    26.91000000
   C     52.45000000    43.29000000    27.67000000
   C     51.52000000    44.10000000    26.76000000
   N     50.92000000    45.24000000    27.47000000
   H     52.49000000    38.70000000    27.42000000
   H     54.72000000    40.16000000    26.05000000
   H     54.69000000    41.68000000    27.98000000
   H     53.25000000    40.79000000    28.64000000
   H     52.15000000    41.54000000    26.56000000
   H     53.65000000    42.29000000    26.05000000
   H     53.32000000    43.90000000    27.89000000
   H     51.84000000    42.99000000    28.52000000
   H     50.73000000    43.40000000    26.47000000
   H     51.96000000    44.40000000    25.81000000
   H     50.20000000    45.68000000    26.92000000
   H     50.57000000    45.07000000    28.40000000
   H     51.62000000    45.97000000    27.52000000
   N     55.02000000    38.02000000    28.43000000
   C     55.87000000    36.95000000    28.93000000
   C     56.00000000    35.82000000    27.92000000
   O     56.75000000    34.88000000    28.20000000
   C     55.37000000    36.50000000    30.29000000
   C     53.85000000    36.32000000    30.28000000
   O     53.07000000    37.28000000    30.21000000
   O     53.41000000    35.17000000    30.08000000
   H     54.07000000    37.99000000    28.78000000
   H     56.91000000    37.28000000    29.05000000
   H     55.59000000    37.24000000    31.06000000
   H     55.81000000    35.58000000    30.67000000
   N     55.41000000    35.89000000    26.73000000
   C     55.70000000    35.00000000    25.62000000
   C     55.30000000    33.55000000    25.84000000
   O     55.94000000    32.65000000    25.30000000
   H     54.65000000    36.54000000    26.61000000
   H     56.77000000    35.08000000    25.47000000
   H     55.10000000    35.37000000    24.79000000
   N     54.39000000    33.23000000    26.76000000
   C     54.08000000    31.89000000    27.20000000
   C     53.08000000    31.28000000    26.23000000
   O     52.87000000    30.07000000    26.36000000
   C     53.63000000    31.95000000    28.65000000
   C     52.27000000    32.53000000    28.99000000
   N     51.75000000    32.27000000    30.19000000
   O     51.69000000    33.33000000    28.25000000
   H     53.90000000    34.01000000    27.19000000
   H     54.93000000    31.21000000    27.19000000
   H     54.37000000    32.42000000    29.30000000
   H     53.64000000    30.92000000    29.02000000
   H     52.19000000    31.76000000    30.94000000
   H     50.81000000    32.60000000    30.35000000
   N     52.43000000    32.08000000    25.37000000
   C     51.41000000    31.74000000    24.41000000
   C     49.97000000    32.11000000    24.77000000
   O     49.05000000    32.11000000    23.95000000
   H     52.71000000    33.05000000    25.32000000
   H     51.32000000    30.65000000    24.32000000
   H     51.60000000    32.09000000    23.40000000
   N     49.79000000    32.55000000    26.02000000
   C     48.52000000    32.80000000    26.67000000
   C     48.29000000    34.22000000    27.16000000
   O     49.26000000    34.91000000    27.49000000
   C     48.51000000    31.83000000    27.85000000
   C     48.79000000    30.37000000    27.58000000
   C     50.04000000    29.87000000    27.95000000
   C     47.81000000    29.50000000    27.09000000
   C     50.36000000    28.51000000    27.82000000
   C     48.11000000    28.14000000    26.92000000
   C     49.38000000    27.65000000    27.31000000
   O     49.71000000    26.33000000    27.29000000
   H     50.56000000    32.86000000    26.60000000
   H     47.71000000    32.60000000    25.97000000
   H     47.49000000    31.94000000    28.21000000
   H     49.19000000    32.17000000    28.62000000
   H     50.71000000    30.65000000    28.31000000
   H     46.85000000    29.91000000    26.83000000
   H     51.32000000    28.16000000    28.18000000
   H     47.35000000    27.44000000    26.64000000
   H     48.92000000    25.79000000    27.26000000
   N     47.03000000    34.62000000    27.30000000
   C     46.74000000    35.94000000    27.82000000
   C     46.17000000    35.81000000    29.23000000
   O     45.41000000    34.88000000    29.51000000
   C     45.82000000    36.61000000    26.80000000
   C     46.67000000    37.16000000    25.66000000
   C     44.99000000    37.71000000    27.45000000
   C     45.75000000    37.57000000    24.51000000
   H     46.26000000    33.99000000    27.14000000
   H     47.60000000    36.60000000    27.90000000
   H     45.14000000    35.84000000    26.43000000
   H     47.49000000    36.48000000    25.43000000
   H     47.14000000    38.09000000    25.99000000
   H     44.20000000    37.91000000    26.73000000
   H     44.35000000    37.38000000    28.27000000
   H     45.53000000    38.63000000    27.69000000
   H     45.28000000    38.53000000    24.70000000
   H     46.32000000    37.63000000    23.58000000
   H     45.03000000    36.76000000    24.39000000
   N     46.47000000    36.85000000    30.01000000
   C     46.06000000    37.04000000    31.39000000
   C     45.32000000    38.35000000    31.56000000
   O     45.16000000    39.11000000    30.60000000
   C     47.26000000    36.94000000    32.32000000
   O     48.16000000    38.00000000    32.10000000
   H     46.97000000    37.57000000    29.51000000
   H     45.40000000    36.24000000    31.71000000
   H     47.83000000    36.01000000    32.24000000
   H     47.03000000    36.95000000    33.39000000
   H     48.63000000    37.81000000    31.29000000
   N     44.68000000    38.65000000    32.70000000
   C     43.89000000    39.85000000    32.88000000
   C     44.65000000    41.17000000    32.78000000
   O     44.17000000    42.10000000    32.14000000
   C     43.23000000    39.75000000    34.25000000
   H     44.70000000    37.98000000    33.45000000
   H     43.12000000    39.85000000    32.11000000
   H     42.43000000    39.01000000    34.18000000
   H     43.99000000    39.69000000    35.04000000
   H     42.76000000    40.71000000    34.49000000
   N     45.88000000    41.23000000    33.29000000
   C     46.74000000    42.37000000    33.03000000
   C     46.93000000    42.74000000    31.56000000
   O     46.81000000    43.90000000    31.20000000
   C     48.02000000    42.15000000    33.82000000
   H     46.22000000    40.35000000    33.65000000
   H     46.29000000    43.28000000    33.41000000
   H     48.12000000    43.03000000    34.46000000
   H     48.04000000    41.32000000    34.52000000
   H     48.89000000    42.17000000    33.15000000
   N     47.17000000    41.71000000    30.74000000
   C     47.38000000    41.74000000    29.31000000
   C     46.10000000    42.14000000    28.60000000
   O     46.14000000    42.91000000    27.64000000
   C     47.90000000    40.42000000    28.74000000
   C     49.37000000    40.23000000    29.10000000
   C     49.85000000    38.79000000    29.01000000
   O     50.99000000    38.49000000    28.58000000
   O     49.17000000    37.80000000    29.38000000
   H     47.23000000    40.78000000    31.13000000
   H     48.14000000    42.48000000    29.07000000
   H     47.87000000    40.45000000    27.65000000
   H     47.28000000    39.60000000    29.11000000
   H     49.38000000    40.50000000    30.16000000
   H     49.99000000    40.79000000    28.41000000
   N     44.98000000    41.67000000    29.15000000
   C     43.63000000    41.82000000    28.63000000
   H     42.99300000    42.26000000    29.39700000
   H     43.64700000    42.47000000    27.75500000
   H     43.23800000    40.84300000    28.34900000
   H     45.08000000    41.07000000    29.95000000
  Ca     51.02000000    36.00000000    29.15000000
   O     50.49000000    36.22000000    31.70000000
   H     50.60000000    35.35000000    32.07000000
   H     49.67000000    36.54000000    32.08000000

Ca 1.70



