%chk=holoCaM_loop3_1.0.chk
%nprocshared=48
%mem=10GB
%nosave
#b3lyp/svp scf=(tight,noincore) Test 
#IOP(5/87=12) Density=Current Pop=(MK,readradii) iop(6/33=2) iop(6/42=6)

holoCaM_loop3_1.0 

   0   1
   C     43.68000000    45.57000000    29.91000000
   C     43.91000000    44.73000000    31.16000000
   O     43.81000000    45.21000000    32.28000000
   H     42.91800000    46.32300000    30.11400000
   H     44.61000000    46.06200000    29.62600000
   H     43.34600000    44.92700000    29.09600000
   N     44.35000000    43.48000000    30.97000000
   C     44.75000000    42.71000000    32.14000000
   C     46.09000000    43.18000000    32.68000000
   O     47.14000000    42.85000000    32.13000000
   C     44.87000000    41.23000000    31.82000000
   C     45.37000000    40.40000000    33.00000000
   O     45.29000000    40.85000000    34.16000000
   O     45.95000000    39.32000000    32.73000000
   H     44.10000000    43.03000000    30.10000000
   H     44.11000000    42.81000000    33.02000000
   H     45.50000000    41.06000000    30.94000000
   H     43.92000000    40.76000000    31.59000000
   N     46.12000000    43.77000000    33.88000000
   C     47.24000000    44.58000000    34.32000000
   C     48.25000000    43.79000000    35.14000000
   O     49.43000000    43.86000000    34.79000000
   C     46.85000000    45.93000000    34.92000000
   C     48.01000000    46.74000000    35.50000000
   C     47.50000000    48.14000000    35.83000000
   C     48.62000000    48.84000000    36.59000000
   N     49.69000000    49.46000000    35.80000000
   H     45.29000000    43.71000000    34.45000000
   H     47.79000000    44.79000000    33.41000000
   H     46.15000000    45.75000000    35.73000000
   H     46.26000000    46.49000000    34.20000000
   H     48.80000000    46.79000000    34.76000000
   H     48.46000000    46.23000000    36.35000000
   H     46.64000000    47.97000000    36.49000000
   H     47.17000000    48.63000000    34.91000000
   H     49.01000000    48.09000000    37.28000000
   H     48.12000000    49.63000000    37.16000000
   H     50.46000000    49.54000000    36.45000000
   H     49.96000000    48.79000000    35.08000000
   H     49.43000000    50.39000000    35.51000000
   N     47.87000000    42.86000000    36.02000000
   C     48.77000000    42.03000000    36.80000000
   C     48.91000000    40.65000000    36.18000000
   O     49.67000000    39.82000000    36.68000000
   C     48.25000000    42.09000000    38.23000000
   C     46.90000000    41.44000000    38.49000000
   O     46.28000000    40.86000000    37.57000000
   O     46.35000000    41.41000000    39.61000000
   H     46.89000000    42.75000000    36.24000000
   H     49.80000000    42.37000000    36.73000000
   H     48.24000000    43.10000000    38.63000000
   H     48.95000000    41.56000000    38.89000000
   N     48.14000000    40.38000000    35.12000000
   C     48.53000000    39.36000000    34.18000000
   C     48.04000000    37.97000000    34.57000000
   O     48.67000000    37.06000000    34.04000000
   H     47.31000000    40.93000000    34.94000000
   H     49.61000000    39.21000000    34.05000000
   H     48.06000000    39.63000000    33.24000000
   N     47.04000000    37.80000000    35.43000000
   C     46.58000000    36.47000000    35.77000000
   C     45.59000000    35.91000000    34.76000000
   O     44.87000000    34.98000000    35.14000000
   C     46.02000000    36.41000000    37.19000000
   C     44.77000000    37.26000000    37.35000000
   N     43.91000000    36.91000000    38.32000000
   O     44.49000000    38.27000000    36.71000000
   H     46.67000000    38.60000000    35.92000000
   H     47.50000000    35.89000000    35.78000000
   H     46.76000000    36.88000000    37.83000000
   H     45.86000000    35.38000000    37.51000000
   H     43.96000000    36.05000000    38.84000000
   H     42.95000000    37.20000000    38.30000000
   N     45.52000000    36.47000000    33.56000000
   C     44.61000000    36.02000000    32.52000000
   C     43.16000000    36.45000000    32.63000000
   O     42.34000000    35.96000000    31.85000000
   H     46.03000000    37.30000000    33.29000000
   H     44.66000000    34.94000000    32.38000000
   H     44.87000000    36.49000000    31.57000000
   N     42.78000000    37.18000000    33.68000000
   C     41.42000000    37.56000000    34.01000000
   C     41.39000000    39.06000000    34.26000000
   O     42.32000000    39.69000000    34.75000000
   C     41.00000000    36.80000000    35.27000000
   C     41.11000000    35.30000000    35.33000000
   C     41.47000000    34.62000000    36.50000000
   C     40.69000000    34.52000000    34.24000000
   C     41.48000000    33.23000000    36.66000000
   C     40.87000000    33.13000000    34.26000000
   C     41.16000000    32.51000000    35.49000000
   O     41.04000000    31.16000000    35.67000000
   H     43.50000000    37.52000000    34.31000000
   H     40.75000000    37.29000000    33.20000000
   H     39.96000000    37.04000000    35.49000000
   H     41.43000000    37.33000000    36.12000000
   H     41.60000000    35.29000000    37.34000000
   H     40.36000000    35.04000000    33.36000000
   H     41.55000000    32.78000000    37.64000000
   H     40.61000000    32.47000000    33.45000000
   H     40.62000000    30.85000000    34.86000000
   N     40.28000000    39.75000000    33.99000000
   C     40.03000000    41.14000000    34.34000000
   C     39.10000000    41.31000000    35.53000000
   O     38.04000000    40.68000000    35.64000000
   C     39.66000000    41.85000000    33.04000000
   C     40.81000000    42.35000000    32.17000000
   C     38.74000000    43.05000000    33.26000000
   C     40.40000000    42.87000000    30.80000000
   H     39.56000000    39.30000000    33.45000000
   H     41.01000000    41.53000000    34.62000000
   H     39.00000000    41.18000000    32.50000000
   H     41.56000000    41.57000000    32.15000000
   H     41.18000000    43.22000000    32.72000000
   H     38.46000000    43.50000000    32.31000000
   H     37.81000000    42.73000000    33.74000000
   H     39.16000000    43.78000000    33.95000000
   H     41.34000000    42.77000000    30.26000000
   H     39.56000000    42.33000000    30.36000000
   H     40.11000000    43.91000000    30.97000000
   N     39.45000000    42.21000000    36.44000000
   C     38.80000000    42.64000000    37.66000000
   C     38.08000000    43.94000000    37.32000000
   O     38.30000000    44.56000000    36.28000000
   C     39.77000000    42.75000000    38.83000000
   O     40.96000000    43.48000000    38.62000000
   H     40.37000000    42.61000000    36.29000000
   H     38.01000000    41.94000000    37.95000000
   H     40.06000000    41.74000000    39.13000000
   H     39.26000000    43.16000000    39.70000000
   H     41.38000000    42.91000000    37.97000000
   N     37.24000000    44.40000000    38.25000000
   C     36.48000000    45.62000000    38.07000000
   C     37.36000000    46.85000000    37.85000000
   O     37.01000000    47.58000000    36.93000000
   C     35.68000000    45.75000000    39.36000000
   H     37.08000000    43.90000000    39.11000000
   H     35.74000000    45.55000000    37.27000000
   H     35.01000000    46.60000000    39.23000000
   H     35.15000000    44.79000000    39.42000000
   H     36.43000000    45.97000000    40.11000000
   N     38.41000000    47.07000000    38.64000000
   C     39.27000000    48.23000000    38.58000000
   C     40.00000000    48.27000000    37.24000000
   O     40.11000000    49.31000000    36.61000000
   C     40.25000000    48.28000000    39.75000000
   H     38.61000000    46.39000000    39.37000000
   H     38.74000000    49.18000000    38.64000000
   H     40.83000000    47.37000000    39.56000000
   H     40.93000000    49.13000000    39.65000000
   H     39.75000000    48.22000000    40.72000000
   N     40.44000000    47.12000000    36.72000000
   C     40.89000000    46.88000000    35.36000000
   C     39.78000000    47.05000000    34.33000000
   O     40.01000000    47.65000000    33.28000000
   C     41.41000000    45.45000000    35.18000000
   C     42.72000000    45.20000000    35.93000000
   C     43.13000000    43.74000000    35.96000000
   O     44.34000000    43.44000000    35.91000000
   O     42.25000000    42.86000000    36.08000000
   H     40.29000000    46.32000000    37.32000000
   H     41.74000000    47.53000000    35.19000000
   H     41.58000000    45.43000000    34.10000000
   H     40.66000000    44.69000000    35.39000000
   H     42.66000000    45.52000000    36.97000000
   H     43.52000000    45.80000000    35.49000000
   N     38.57000000    46.53000000    34.52000000
   C     37.43000000    46.77000000    33.65000000
   H     36.62800000    47.23500000    34.22300000
   H     37.72600000    47.43300000    32.83700000
   H     37.08000000    45.82300000    33.23900000
   H     38.46000000    46.15000000    35.45000000
  Ca     44.03000000    40.78000000    36.45000000
   O     43.93000000    42.19000000    38.72000000
   H     43.81000000    43.12000000    38.91000000
   H     44.78000000    41.97000000    39.10000000

Ca 1.70



