%chk=holoCaM_loop3_16.0.chk
%nprocshared=48
%mem=10GB
%nosave
#b3lyp/svp scf=(tight,noincore) Test 
#IOP(5/87=12) Density=Current Pop=(MK,readradii) iop(6/33=2) iop(6/42=6)

holoCaM_loop3_16.0 

   0   1
   C     83.07000000    27.88000000    25.19000000
   C     84.58000000    27.76000000    25.16000000
   O     85.04000000    26.62000000    25.15000000
   H     82.62600000    26.88700000    25.12200000
   H     82.76100000    28.35300000    26.12200000
   H     82.73600000    28.48500000    24.34700000
   N     85.32000000    28.87000000    25.13000000
   C     86.77000000    28.88000000    25.22000000
   C     87.15000000    29.02000000    26.69000000
   O     86.77000000    29.99000000    27.34000000
   C     87.29000000    30.09000000    24.46000000
   C     88.69000000    30.63000000    24.73000000
   O     89.04000000    31.81000000    24.50000000
   O     89.58000000    29.82000000    25.08000000
   H     84.81000000    29.74000000    25.07000000
   H     87.22000000    27.97000000    24.84000000
   H     86.58000000    30.90000000    24.59000000
   H     87.22000000    29.78000000    23.41000000
   N     87.98000000    28.09000000    27.18000000
   C     88.34000000    27.99000000    28.58000000
   C     89.64000000    28.65000000    29.04000000
   O     89.91000000    28.54000000    30.23000000
   C     88.34000000    26.50000000    28.91000000
   C     87.10000000    25.67000000    28.59000000
   C     85.79000000    26.17000000    29.19000000
   C     84.58000000    25.77000000    28.34000000
   N     83.38000000    25.91000000    29.17000000
   H     88.24000000    27.30000000    26.61000000
   H     87.54000000    28.40000000    29.20000000
   H     88.66000000    26.32000000    29.94000000
   H     89.09000000    26.08000000    28.24000000
   H     87.18000000    24.66000000    29.01000000
   H     87.07000000    25.57000000    27.51000000
   H     85.80000000    27.26000000    29.28000000
   H     85.65000000    25.82000000    30.21000000
   H     84.68000000    24.71000000    28.07000000
   H     84.58000000    26.38000000    27.44000000
   H     82.46000000    25.93000000    28.76000000
   H     83.46000000    25.13000000    29.80000000
   H     83.47000000    26.74000000    29.74000000
   N     90.29000000    29.48000000    28.22000000
   C     91.35000000    30.39000000    28.62000000
   C     91.33000000    31.78000000    27.99000000
   O     92.24000000    32.55000000    28.31000000
   C     92.71000000    29.72000000    28.49000000
   C     93.16000000    29.51000000    27.05000000
   O     92.36000000    29.24000000    26.12000000
   O     94.37000000    29.73000000    26.83000000
   H     90.02000000    29.47000000    27.25000000
   H     91.28000000    30.56000000    29.70000000
   H     92.70000000    28.76000000    29.00000000
   H     93.49000000    30.24000000    29.03000000
   N     90.45000000    32.17000000    27.07000000
   C     90.50000000    33.52000000    26.53000000
   C     91.49000000    33.60000000    25.38000000
   O     92.00000000    34.71000000    25.21000000
   H     89.82000000    31.52000000    26.62000000
   H     90.87000000    34.27000000    27.23000000
   H     89.51000000    33.74000000    26.13000000
   N     91.92000000    32.54000000    24.70000000
   C     92.80000000    32.61000000    23.55000000
   C     92.10000000    32.68000000    22.20000000
   O     92.71000000    33.13000000    21.23000000
   C     93.85000000    31.51000000    23.61000000
   C     93.40000000    30.09000000    23.26000000
   N     94.34000000    29.15000000    23.14000000
   O     92.23000000    29.76000000    23.14000000
   H     91.38000000    31.68000000    24.69000000
   H     93.33000000    33.56000000    23.62000000
   H     94.38000000    31.51000000    24.56000000
   H     94.59000000    31.74000000    22.84000000
   H     95.32000000    29.40000000    23.16000000
   H     94.04000000    28.27000000    22.74000000
   N     90.80000000    32.41000000    22.13000000
   C     90.03000000    32.59000000    20.92000000
   C     90.08000000    31.42000000    19.96000000
   O     89.68000000    31.52000000    18.80000000
   H     90.39000000    32.34000000    23.06000000
   H     90.15000000    33.54000000    20.39000000
   H     89.00000000    32.74000000    21.23000000
   N     90.61000000    30.27000000    20.40000000
   C     90.55000000    28.98000000    19.74000000
   C     90.37000000    27.78000000    20.67000000
   O     90.70000000    27.83000000    21.85000000
   C     91.66000000    28.84000000    18.70000000
   C     93.08000000    29.16000000    19.12000000
   C     93.99000000    28.12000000    19.38000000
   C     93.58000000    30.46000000    19.20000000
   C     95.25000000    28.41000000    19.91000000
   C     94.89000000    30.81000000    19.54000000
   C     95.71000000    29.74000000    19.96000000
   O     97.02000000    30.02000000    20.18000000
   H     91.03000000    30.25000000    21.31000000
   H     89.68000000    28.94000000    19.10000000
   H     91.54000000    29.45000000    17.81000000
   H     91.54000000    27.81000000    18.37000000
   H     93.64000000    27.10000000    19.41000000
   H     92.87000000    31.26000000    19.02000000
   H     95.98000000    27.66000000    20.19000000
   H     95.24000000    31.82000000    19.66000000
   H     97.17000000    30.97000000    20.24000000
   N     89.70000000    26.74000000    20.18000000
   C     88.95000000    25.68000000    20.82000000
   C     89.64000000    24.34000000    20.57000000
   O     90.07000000    24.07000000    19.45000000
   C     87.49000000    25.70000000    20.40000000
   C     86.77000000    27.04000000    20.48000000
   C     86.72000000    24.65000000    21.21000000
   C     86.62000000    27.72000000    21.84000000
   H     89.60000000    26.74000000    19.17000000
   H     88.93000000    25.79000000    21.91000000
   H     87.49000000    25.49000000    19.33000000
   H     85.76000000    26.95000000    20.08000000
   H     87.19000000    27.73000000    19.75000000
   H     87.03000000    23.62000000    21.05000000
   H     86.90000000    24.83000000    22.27000000
   H     85.64000000    24.71000000    21.06000000
   H     85.98000000    27.10000000    22.47000000
   H     87.59000000    27.68000000    22.33000000
   H     86.25000000    28.73000000    21.68000000
   N     89.85000000    23.53000000    21.61000000
   C     90.52000000    22.25000000    21.60000000
   C     89.51000000    21.18000000    21.97000000
   O     88.34000000    21.44000000    22.27000000
   C     91.77000000    22.36000000    22.48000000
   O     91.41000000    22.79000000    23.77000000
   H     89.59000000    23.92000000    22.51000000
   H     90.86000000    22.01000000    20.59000000
   H     92.50000000    23.03000000    22.03000000
   H     92.28000000    21.40000000    22.56000000
   H     91.01000000    23.65000000    23.66000000
   N     90.01000000    19.94000000    22.03000000
   C     89.10000000    18.82000000    22.19000000
   C     88.57000000    18.69000000    23.61000000
   O     87.44000000    18.23000000    23.80000000
   C     89.84000000    17.53000000    21.85000000
   H     90.95000000    19.76000000    21.71000000
   H     88.26000000    19.10000000    21.56000000
   H     89.91000000    17.47000000    20.77000000
   H     90.83000000    17.56000000    22.31000000
   H     89.28000000    16.64000000    22.14000000
   N     89.34000000    19.11000000    24.62000000
   C     88.90000000    19.17000000    26.00000000
   C     87.89000000    20.27000000    26.27000000
   O     87.21000000    20.22000000    27.29000000
   C     90.07000000    19.34000000    26.97000000
   H     90.24000000    19.47000000    24.35000000
   H     88.43000000    18.22000000    26.25000000
   H     90.61000000    20.24000000    26.67000000
   H     89.72000000    19.46000000    27.99000000
   H     90.68000000    18.43000000    26.99000000
   N     87.85000000    21.31000000    25.43000000
   C     86.92000000    22.41000000    25.51000000
   C     85.59000000    21.99000000    24.89000000
   O     84.52000000    22.19000000    25.46000000
   C     87.48000000    23.65000000    24.81000000
   C     88.73000000    24.12000000    25.55000000
   C     89.36000000    25.34000000    24.89000000
   O     89.20000000    26.51000000    25.29000000
   O     90.08000000    25.17000000    23.88000000
   H     88.48000000    21.31000000    24.64000000
   H     86.65000000    22.66000000    26.53000000
   H     86.67000000    24.37000000    24.77000000
   H     87.76000000    23.36000000    23.79000000
   H     89.44000000    23.29000000    25.45000000
   H     88.55000000    24.21000000    26.62000000
   N     85.73000000    21.30000000    23.75000000
   C     84.58000000    20.76000000    23.06000000
   H     83.77700000    21.49800000    23.06000000
   H     84.85200000    20.52000000    22.03200000
   H     84.24200000    19.85600000    23.56800000
   H     86.68000000    21.21000000    23.44000000
  Ca     91.15000000    27.76000000    24.45000000
   O     92.09000000    26.11000000    26.32000000
   H     93.04000000    26.24000000    26.35000000
   H     91.97000000    25.20000000    26.58000000

Ca 1.70



