%chk=holoCaM_loop3_17.0.chk
%nprocshared=48
%mem=10GB
%nosave
#b3lyp/svp scf=(tight,noincore) Test 
#IOP(5/87=12) Density=Current Pop=(MK,readradii) iop(6/33=2) iop(6/42=6)

holoCaM_loop3_17.0 

   0   1
   C     92.95000000    53.61000000     3.67300000
   C     94.04000000    54.58000000     3.23300000
   O     95.20000000    54.26000000     3.01300000
   H     92.05500000    53.77400000     3.07300000
   H     93.29700000    52.58600000     3.53500000
   H     92.71800000    53.77700000     4.72500000
   N     93.78000000    55.89000000     3.12300000
   C     94.79000000    56.88000000     2.83300000
   C     95.66000000    57.13000000     4.05300000
   O     95.22000000    57.54000000     5.12300000
   C     94.09000000    58.17000000     2.41300000
   C     95.05000000    59.35000000     2.24300000
   O     94.61000000    60.48000000     2.56300000
   O     96.21000000    59.19000000     1.82300000
   H     92.83000000    56.23000000     3.20300000
   H     95.52000000    56.59000000     2.07300000
   H     93.27000000    58.32000000     3.11300000
   H     93.62000000    58.02000000     1.44300000
   N     96.96000000    56.87000000     3.92300000
   C     97.86000000    56.79000000     5.05300000
   C     98.28000000    58.13000000     5.63300000
   O     98.71000000    58.15000000     6.79300000
   C     99.00000000    55.81000000     4.78300000
   C     98.43000000    54.39000000     4.75300000
   C     99.61000000    53.46000000     4.51300000
   C     99.32000000    51.97000000     4.67300000
   N     98.36000000    51.55000000     5.71300000
   H     97.32000000    56.70000000     2.99300000
   H     97.29000000    56.30000000     5.84300000
   H     99.85000000    55.93000000     5.45300000
   H     99.34000000    56.08000000     3.78300000
   H     97.71000000    54.16000000     3.97300000
   H     97.88000000    54.24000000     5.68300000
   H    100.38000000    53.70000000     5.24300000
   H     99.97000000    53.57000000     3.48300000
   H    100.25000000    51.42000000     4.69300000
   H     98.87000000    51.72000000     3.71300000
   H     98.10000000    50.57000000     5.68300000
   H     98.66000000    51.77000000     6.65300000
   H     97.46000000    51.97000000     5.52300000
   N     98.09000000    59.24000000     4.91300000
   C     98.82000000    60.45000000     5.20300000
   C     98.03000000    61.75000000     5.20300000
   O     98.53000000    62.72000000     5.76300000
   C     99.97000000    60.43000000     4.20300000
   C     99.44000000    60.08000000     2.82300000
   O     99.52000000    58.90000000     2.44300000
   O     99.05000000    60.98000000     2.04300000
   H     97.77000000    59.05000000     3.97300000
   H     99.37000000    60.50000000     6.14300000
   H    100.64000000    59.64000000     4.55300000
   H    100.53000000    61.37000000     4.21300000
   N     96.83000000    61.67000000     4.61300000
   C     95.89000000    62.78000000     4.60300000
   C     95.83000000    63.58000000     3.31300000
   O     95.20000000    64.63000000     3.16300000
   H     96.61000000    60.85000000     4.08300000
   H     96.19000000    63.52000000     5.35300000
   H     94.92000000    62.39000000     4.90300000
   N     96.47000000    63.14000000     2.23300000
   C     96.47000000    63.77000000     0.92300000
   C     95.19000000    63.47000000     0.15300000
   O     94.94000000    64.15000000    -0.83700000
   C     97.79000000    63.54000000     0.20300000
   C     97.84000000    62.24000000    -0.57700000
   N     98.79000000    62.04000000    -1.48700000
   O     97.11000000    61.28000000    -0.33700000
   H     97.00000000    62.29000000     2.37300000
   H     96.43000000    64.85000000     1.10300000
   H     98.55000000    63.56000000     0.98300000
   H     97.99000000    64.43000000    -0.40700000
   H     99.52000000    62.73000000    -1.65700000
   H     98.92000000    61.14000000    -1.91700000
   N     94.36000000    62.55000000     0.66300000
   C     93.14000000    62.17000000    -0.01700000
   C     93.21000000    61.11000000    -1.10700000
   O     92.18000000    60.92000000    -1.74700000
   H     94.68000000    61.88000000     1.34300000
   H     92.69000000    63.02000000    -0.53700000
   H     92.37000000    61.91000000     0.72300000
   N     94.41000000    60.56000000    -1.30700000
   C     94.71000000    59.72000000    -2.44700000
   C     95.32000000    58.36000000    -2.17700000
   O     96.16000000    58.27000000    -1.28700000
   C     95.60000000    60.56000000    -3.36700000
   C     95.08000000    61.93000000    -3.72700000
   C     96.00000000    62.98000000    -3.58700000
   C     93.83000000    62.16000000    -4.32700000
   C     95.72000000    64.24000000    -4.12700000
   C     93.50000000    63.43000000    -4.80700000
   C     94.47000000    64.46000000    -4.73700000
   O     94.16000000    65.69000000    -5.22700000
   H     95.17000000    60.79000000    -0.67700000
   H     93.77000000    59.52000000    -2.95700000
   H     95.84000000    59.86000000    -4.16700000
   H     96.59000000    60.69000000    -2.93700000
   H     97.03000000    62.86000000    -3.26700000
   H     93.23000000    61.31000000    -4.60700000
   H     96.49000000    65.00000000    -4.07700000
   H     92.50000000    63.50000000    -5.20700000
   H     93.25000000    65.78000000    -5.51700000
   N     94.94000000    57.28000000    -2.86700000
   C     95.48000000    55.96000000    -2.59700000
   C     96.49000000    55.79000000    -3.72700000
   O     96.17000000    55.76000000    -4.91700000
   C     94.40000000    54.88000000    -2.72700000
   C     93.15000000    55.34000000    -1.96700000
   C     94.89000000    53.50000000    -2.31700000
   C     93.34000000    55.75000000    -0.50700000
   H     94.17000000    57.48000000    -3.48700000
   H     95.98000000    55.81000000    -1.64700000
   H     94.09000000    54.78000000    -3.76700000
   H     92.43000000    54.53000000    -2.00700000
   H     92.72000000    56.23000000    -2.44700000
   H     94.10000000    52.76000000    -2.47700000
   H     95.62000000    53.09000000    -3.01700000
   H     95.23000000    53.49000000    -1.28700000
   H     92.38000000    55.93000000    -0.03700000
   H     93.93000000    55.02000000     0.03300000
   H     93.78000000    56.75000000    -0.53700000
   N     97.74000000    55.47000000    -3.39700000
   C     98.71000000    54.90000000    -4.30700000
   C     98.94000000    53.40000000    -4.14700000
   O     98.50000000    52.76000000    -3.19700000
   C    100.01000000    55.66000000    -4.08700000
   O    100.53000000    55.35000000    -2.81700000
   H     98.10000000    55.78000000    -2.50700000
   H     98.36000000    55.06000000    -5.33700000
   H     99.87000000    56.74000000    -4.22700000
   H    100.72000000    55.39000000    -4.86700000
   H     99.97000000    55.80000000    -2.18700000
   N     99.57000000    52.72000000    -5.09700000
   C     99.83000000    51.30000000    -5.22700000
   C    100.37000000    50.62000000    -3.97700000
   O     99.80000000    49.57000000    -3.66700000
   C    100.79000000    51.07000000    -6.39700000
   H     99.77000000    53.27000000    -5.91700000
   H     98.89000000    50.84000000    -5.53700000
   H    101.19000000    50.05000000    -6.45700000
   H    100.21000000    51.22000000    -7.30700000
   H    101.64000000    51.73000000    -6.23700000
   N    101.25000000    51.18000000    -3.14700000
   C    101.74000000    50.64000000    -1.88700000
   C    100.68000000    50.70000000    -0.79700000
   O    100.46000000    49.74000000    -0.05700000
   C    102.96000000    51.44000000    -1.43700000
   H    101.69000000    52.02000000    -3.47700000
   H    102.05000000    49.60000000    -1.91700000
   H    103.85000000    51.28000000    -2.03700000
   H    102.58000000    52.46000000    -1.37700000
   H    103.21000000    51.08000000    -0.44700000
   N     99.92000000    51.79000000    -0.82700000
   C     98.85000000    52.02000000     0.12300000
   C     97.70000000    51.07000000    -0.17700000
   O     97.08000000    50.56000000     0.75300000
   C     98.31000000    53.44000000     0.00300000
   C     99.37000000    54.51000000     0.24300000
   C     98.74000000    55.89000000     0.08300000
   O     98.09000000    56.45000000     0.99300000
   O     99.02000000    56.49000000    -0.98700000
   H    100.05000000    52.47000000    -1.56700000
   H     99.14000000    51.91000000     1.17300000
   H     97.47000000    53.57000000     0.69300000
   H     97.87000000    53.48000000    -0.99700000
   H    100.16000000    54.42000000    -0.49700000
   H     99.84000000    54.42000000     1.22300000
   N     97.44000000    50.72000000    -1.43700000
   C     96.48000000    49.74000000    -1.90700000
   H     95.58900000    50.25100000    -2.27100000
   H     96.92100000    49.15800000    -2.71600000
   H     96.20700000    49.07500000    -1.08700000
   H     97.99000000    51.20000000    -2.13700000
  Ca     98.22000000    58.91000000     0.26000000
   O     98.89000000    59.23000000    -2.31700000
   H     98.62000000    59.29000000    -3.23700000
   H     99.69000000    58.71000000    -2.33700000

Ca 1.70



