%chk=holoCaM_loop3_8.0.chk
%nprocshared=48
%mem=10GB
%nosave
#b3lyp/svp scf=(tight,noincore) Test 
#IOP(5/87=12) Density=Current Pop=(MK,readradii) iop(6/33=2) iop(6/42=6)

holoCaM_loop3_8.0 

   0   1
   C     77.50000000    52.06000000    89.60000000
   C     78.32000000    52.90000000    88.63000000
   O     78.87000000    52.35000000    87.69000000
   H     76.52200000    51.85400000    89.16500000
   H     78.01600000    51.12000000    89.79300000
   H     77.37300000    52.60500000    90.53600000
   N     78.42000000    54.20000000    88.92000000
   C     79.15000000    55.18000000    88.13000000
   C     80.57000000    55.39000000    88.64000000
   O     80.72000000    55.68000000    89.82000000
   C     78.35000000    56.47000000    87.98000000
   C     79.18000000    57.47000000    87.19000000
   O     79.07000000    57.56000000    85.95000000
   O     80.07000000    58.14000000    87.76000000
   H     78.01000000    54.53000000    89.78000000
   H     79.26000000    54.81000000    87.11000000
   H     78.11000000    56.88000000    88.96000000
   H     77.42000000    56.19000000    87.48000000
   N     81.57000000    55.43000000    87.75000000
   C     82.95000000    55.56000000    88.17000000
   C     83.67000000    56.85000000    87.79000000
   O     84.89000000    56.88000000    87.93000000
   C     83.67000000    54.36000000    87.57000000
   C     83.30000000    53.01000000    88.18000000
   C     84.42000000    52.07000000    87.75000000
   C     84.20000000    50.59000000    88.02000000
   N     85.23000000    49.72000000    87.43000000
   H     81.29000000    55.37000000    86.79000000
   H     83.07000000    55.43000000    89.25000000
   H     84.75000000    54.49000000    87.66000000
   H     83.48000000    54.34000000    86.49000000
   H     82.32000000    52.63000000    87.89000000
   H     83.35000000    53.16000000    89.25000000
   H     85.33000000    52.26000000    88.33000000
   H     84.61000000    52.26000000    86.69000000
   H     83.25000000    50.30000000    87.56000000
   H     84.11000000    50.46000000    89.10000000
   H     85.30000000    49.70000000    86.42000000
   H     86.15000000    50.09000000    87.66000000
   H     85.21000000    48.79000000    87.83000000
   N     82.89000000    57.83000000    87.33000000
   C     83.55000000    58.98000000    86.74000000
   C     82.82000000    60.31000000    86.84000000
   O     83.27000000    61.28000000    86.23000000
   C     83.79000000    58.59000000    85.28000000
   C     82.58000000    58.04000000    84.55000000
   O     82.46000000    56.80000000    84.45000000
   O     81.70000000    58.83000000    84.16000000
   H     81.88000000    57.80000000    87.35000000
   H     84.52000000    59.11000000    87.21000000
   H     84.65000000    57.92000000    85.18000000
   H     84.13000000    59.51000000    84.79000000
   N     81.78000000    60.45000000    87.66000000
   C     81.09000000    61.69000000    87.95000000
   C     79.88000000    62.01000000    87.09000000
   O     79.32000000    63.08000000    87.31000000
   H     81.31000000    59.61000000    87.97000000
   H     81.68000000    62.56000000    87.66000000
   H     80.91000000    61.78000000    89.02000000
   N     79.54000000    61.24000000    86.06000000
   C     78.49000000    61.59000000    85.13000000
   C     77.21000000    60.78000000    85.33000000
   O     76.18000000    61.12000000    84.76000000
   C     78.94000000    61.58000000    83.67000000
   C     78.64000000    60.30000000    82.90000000
   N     77.99000000    60.32000000    81.74000000
   O     79.00000000    59.19000000    83.29000000
   H     80.08000000    60.40000000    85.91000000
   H     78.18000000    62.63000000    85.23000000
   H     80.01000000    61.72000000    83.60000000
   H     78.60000000    62.48000000    83.17000000
   H     77.45000000    61.15000000    81.52000000
   H     77.80000000    59.43000000    81.30000000
   N     77.28000000    59.68000000    86.09000000
   C     76.18000000    58.92000000    86.62000000
   C     75.48000000    57.99000000    85.64000000
   O     75.17000000    56.87000000    86.03000000
   H     78.19000000    59.35000000    86.36000000
   H     75.34000000    59.41000000    87.13000000
   H     76.50000000    58.23000000    87.41000000
   N     75.28000000    58.42000000    84.39000000
   C     75.05000000    57.50000000    83.29000000
   C     76.01000000    56.32000000    83.19000000
   O     77.23000000    56.47000000    83.28000000
   C     75.03000000    58.25000000    81.97000000
   C     74.03000000    59.33000000    81.61000000
   C     74.10000000    59.98000000    80.37000000
   C     72.93000000    59.59000000    82.43000000
   C     73.12000000    60.92000000    80.01000000
   C     71.91000000    60.45000000    82.03000000
   C     72.03000000    61.21000000    80.85000000
   O     71.11000000    62.16000000    80.51000000
   H     75.51000000    59.35000000    84.08000000
   H     74.05000000    57.11000000    83.49000000
   H     74.83000000    57.50000000    81.21000000
   H     76.02000000    58.60000000    81.68000000
   H     74.93000000    59.77000000    79.71000000
   H     72.84000000    59.18000000    83.43000000
   H     73.29000000    61.46000000    79.09000000
   H     71.05000000    60.60000000    82.67000000
   H     70.29000000    62.23000000    80.99000000
   N     75.44000000    55.14000000    82.97000000
   C     76.22000000    53.92000000    83.13000000
   C     76.63000000    53.46000000    81.74000000
   O     75.79000000    53.41000000    80.85000000
   C     75.45000000    52.84000000    83.88000000
   C     74.98000000    53.23000000    85.28000000
   C     76.25000000    51.54000000    83.86000000
   C     76.07000000    53.74000000    86.21000000
   H     74.43000000    55.11000000    83.02000000
   H     77.12000000    54.16000000    83.70000000
   H     74.52000000    52.63000000    83.34000000
   H     74.50000000    52.33000000    85.66000000
   H     74.10000000    53.87000000    85.17000000
   H     75.75000000    50.72000000    84.39000000
   H     76.29000000    51.25000000    82.81000000
   H     77.27000000    51.67000000    84.19000000
   H     76.84000000    52.97000000    86.20000000
   H     76.60000000    54.63000000    85.86000000
   H     75.60000000    53.95000000    87.17000000
   N     77.90000000    53.12000000    81.51000000
   C     78.38000000    52.59000000    80.25000000
   C     78.43000000    51.07000000    80.30000000
   O     78.32000000    50.43000000    81.34000000
   C     79.66000000    53.31000000    79.82000000
   O     80.71000000    53.18000000    80.75000000
   H     78.57000000    52.98000000    82.25000000
   H     77.64000000    52.93000000    79.52000000
   H     79.51000000    54.39000000    79.74000000
   H     79.92000000    52.99000000    78.82000000
   H     80.45000000    53.57000000    81.60000000
   N     78.73000000    50.49000000    79.13000000
   C     79.05000000    49.08000000    79.00000000
   C     80.06000000    48.47000000    79.97000000
   O     79.71000000    47.56000000    80.73000000
   C     79.45000000    48.85000000    77.55000000
   H     78.69000000    51.11000000    78.34000000
   H     78.17000000    48.45000000    79.14000000
   H     78.64000000    49.25000000    76.94000000
   H     80.35000000    49.44000000    77.38000000
   H     79.60000000    47.81000000    77.26000000
   N     81.23000000    49.10000000    80.13000000
   C     82.31000000    48.68000000    80.99000000
   C     81.87000000    48.72000000    82.45000000
   O     82.11000000    47.70000000    83.10000000
   C     83.59000000    49.48000000    80.83000000
   H     81.48000000    49.88000000    79.54000000
   H     82.53000000    47.65000000    80.71000000
   H     83.95000000    49.51000000    79.80000000
   H     83.43000000    50.49000000    81.21000000
   H     84.36000000    49.03000000    81.45000000
   N     81.16000000    49.77000000    82.89000000
   C     80.62000000    49.99000000    84.21000000
   C     79.42000000    49.08000000    84.44000000
   O     79.28000000    48.69000000    85.60000000
   C     80.09000000    51.42000000    84.24000000
   C     81.14000000    52.51000000    84.42000000
   C     80.43000000    53.84000000    84.29000000
   O     80.53000000    54.69000000    85.20000000
   O     80.02000000    54.20000000    83.17000000
   H     81.01000000    50.56000000    82.28000000
   H     81.39000000    49.83000000    84.97000000
   H     79.42000000    51.51000000    85.10000000
   H     79.53000000    51.63000000    83.33000000
   H     81.88000000    52.38000000    83.62000000
   H     81.65000000    52.37000000    85.37000000
   N     78.62000000    48.73000000    83.43000000
   C     77.62000000    47.69000000    83.57000000
   H     76.72000000    47.97600000    83.02500000
   H     78.00800000    46.75500000    83.16500000
   H     77.37800000    47.55700000    84.62500000
   H     78.63000000    49.25000000    82.57000000
  Ca     79.96000000    56.84000000    83.71000000
   O     79.88000000    56.76000000    81.08000000
   H     80.40000000    56.26000000    80.44000000
   H     79.14000000    57.09000000    80.57000000

Ca 1.70



