%chk=holoCaM_loop3_0.0.chk
%nprocshared=48
%mem=10GB
%nosave
#b3lyp/svp scf=(tight,noincore) Test 
#IOP(5/87=12) Density=Current Pop=(MK,readradii) iop(6/33=2) iop(6/42=6)

holoCaM_loop3_0.0 

   0   1
   C     43.50000000    45.18000000    30.37000000
   C     43.43000000    44.14000000    31.48000000
   O     43.13000000    44.61000000    32.57000000
   H     44.52900000    45.51900000    30.25500000
   H     43.15800000    44.73700000    29.43500000
   H     42.86500000    46.02800000    30.62500000
   N     43.88000000    42.89000000    31.32000000
   C     44.27000000    42.05000000    32.43000000
   C     45.68000000    42.45000000    32.85000000
   O     46.62000000    42.19000000    32.10000000
   C     44.16000000    40.58000000    32.04000000
   C     44.47000000    39.59000000    33.15000000
   O     44.77000000    40.03000000    34.28000000
   O     44.43000000    38.37000000    32.86000000
   H     44.12000000    42.55000000    30.40000000
   H     43.58000000    42.18000000    33.27000000
   H     44.69000000    40.48000000    31.09000000
   H     43.11000000    40.40000000    31.77000000
   N     45.84000000    43.06000000    34.02000000
   C     47.11000000    43.59000000    34.47000000
   C     48.02000000    42.46000000    34.94000000
   O     49.19000000    42.49000000    34.55000000
   C     46.90000000    44.62000000    35.57000000
   C     48.09000000    45.58000000    35.48000000
   C     47.95000000    46.79000000    36.40000000
   C     49.04000000    47.84000000    36.60000000
   N     49.49000000    48.31000000    35.28000000
   H     45.08000000    43.24000000    34.65000000
   H     47.64000000    44.11000000    33.66000000
   H     46.83000000    44.17000000    36.56000000
   H     46.01000000    45.21000000    35.34000000
   H     48.09000000    46.04000000    34.49000000
   H     49.00000000    45.01000000    35.68000000
   H     47.68000000    46.47000000    37.41000000
   H     47.08000000    47.37000000    36.11000000
   H     49.92000000    47.36000000    37.03000000
   H     48.79000000    48.73000000    37.17000000
   H     50.00000000    49.16000000    35.46000000
   H     49.94000000    47.60000000    34.72000000
   H     48.70000000    48.65000000    34.75000000
   N     47.58000000    41.46000000    35.71000000
   C     48.43000000    40.38000000    36.18000000
   C     48.58000000    39.28000000    35.14000000
   O     49.71000000    38.81000000    35.09000000
   C     48.01000000    39.89000000    37.56000000
   C     46.73000000    39.10000000    37.39000000
   O     45.69000000    39.67000000    36.98000000
   O     46.75000000    37.85000000    37.48000000
   H     46.62000000    41.42000000    35.99000000
   H     49.43000000    40.72000000    36.44000000
   H     47.85000000    40.79000000    38.17000000
   H     48.79000000    39.27000000    38.02000000
   N     47.61000000    38.97000000    34.27000000
   C     47.73000000    38.02000000    33.19000000
   C     47.19000000    36.65000000    33.59000000
   O     47.64000000    35.67000000    33.00000000
   H     46.75000000    39.50000000    34.33000000
   H     48.71000000    37.79000000    32.76000000
   H     47.05000000    38.39000000    32.43000000
   N     46.25000000    36.60000000    34.53000000
   C     45.56000000    35.38000000    34.90000000
   C     44.57000000    34.88000000    33.85000000
   O     44.04000000    33.78000000    33.92000000
   C     44.90000000    35.45000000    36.27000000
   C     43.96000000    36.62000000    36.54000000
   N     43.22000000    36.57000000    37.65000000
   O     43.74000000    37.43000000    35.64000000
   H     46.00000000    37.46000000    35.00000000
   H     46.30000000    34.59000000    34.99000000
   H     45.66000000    35.34000000    37.04000000
   H     44.18000000    34.63000000    36.32000000
   H     43.29000000    35.82000000    38.32000000
   H     42.49000000    37.24000000    37.83000000
   N     44.37000000    35.64000000    32.77000000
   C     43.35000000    35.31000000    31.80000000
   C     42.00000000    35.95000000    32.07000000
   O     41.10000000    35.54000000    31.34000000
   H     44.63000000    36.61000000    32.71000000
   H     43.17000000    34.23000000    31.76000000
   H     43.59000000    35.62000000    30.78000000
   N     41.91000000    36.88000000    33.02000000
   C     40.64000000    37.32000000    33.56000000
   C     40.76000000    38.80000000    33.90000000
   O     41.75000000    39.24000000    34.49000000
   C     40.31000000    36.56000000    34.84000000
   C     40.32000000    35.05000000    34.85000000
   C     40.92000000    34.30000000    35.87000000
   C     39.78000000    34.37000000    33.75000000
   C     40.94000000    32.91000000    35.78000000
   C     39.86000000    32.98000000    33.61000000
   C     40.38000000    32.22000000    34.68000000
   O     40.54000000    30.87000000    34.61000000
   H     42.76000000    37.29000000    33.39000000
   H     39.83000000    37.25000000    32.84000000
   H     39.27000000    36.81000000    35.07000000
   H     40.87000000    37.02000000    35.66000000
   H     41.37000000    34.72000000    36.76000000
   H     39.37000000    34.94000000    32.93000000
   H     41.40000000    32.39000000    36.61000000
   H     39.49000000    32.44000000    32.76000000
   H     40.27000000    30.54000000    33.74000000
   N     39.65000000    39.48000000    33.62000000
   C     39.45000000    40.89000000    33.88000000
   C     38.37000000    40.99000000    34.94000000
   O     37.19000000    40.72000000    34.73000000
   C     39.06000000    41.60000000    32.59000000
   C     40.31000000    41.64000000    31.72000000
   C     38.38000000    42.96000000    32.79000000
   C     40.14000000    42.36000000    30.39000000
   H     38.97000000    38.93000000    33.10000000
   H     40.35000000    41.30000000    34.34000000
   H     38.30000000    40.97000000    32.13000000
   H     40.69000000    40.65000000    31.47000000
   H     41.08000000    42.22000000    32.22000000
   H     38.33000000    43.56000000    31.88000000
   H     37.43000000    42.87000000    33.32000000
   H     39.08000000    43.55000000    33.38000000
   H     41.03000000    42.32000000    29.75000000
   H     39.35000000    41.84000000    29.87000000
   H     39.90000000    43.40000000    30.61000000
   N     38.83000000    41.39000000    36.13000000
   C     38.00000000    41.75000000    37.27000000
   C     37.21000000    43.03000000    37.07000000
   O     37.51000000    43.73000000    36.11000000
   C     38.93000000    41.79000000    38.48000000
   O     40.02000000    42.67000000    38.36000000
   H     39.74000000    41.81000000    36.11000000
   H     37.32000000    40.93000000    37.47000000
   H     39.25000000    40.78000000    38.77000000
   H     38.37000000    42.04000000    39.38000000
   H     40.65000000    42.27000000    37.76000000
   N     36.36000000    43.39000000    38.04000000
   C     35.80000000    44.72000000    38.18000000
   C     36.84000000    45.83000000    38.17000000
   O     36.75000000    46.71000000    37.32000000
   C     35.06000000    44.67000000    39.51000000
   H     36.12000000    42.74000000    38.77000000
   H     35.05000000    44.94000000    37.42000000
   H     34.59000000    45.61000000    39.80000000
   H     34.19000000    44.01000000    39.54000000
   H     35.84000000    44.42000000    40.23000000
   N     37.84000000    45.83000000    39.05000000
   C     38.83000000    46.89000000    39.12000000
   C     39.57000000    47.13000000    37.82000000
   O     40.20000000    48.15000000    37.56000000
   C     39.76000000    46.55000000    40.28000000
   H     37.85000000    45.06000000    39.70000000
   H     38.31000000    47.83000000    39.34000000
   H     40.35000000    45.71000000    39.90000000
   H     40.35000000    47.39000000    40.65000000
   H     39.17000000    46.24000000    41.14000000
   N     39.70000000    46.06000000    37.03000000
   C     40.42000000    46.05000000    35.78000000
   C     39.49000000    46.60000000    34.70000000
   O     40.02000000    47.29000000    33.82000000
   C     41.01000000    44.66000000    35.57000000
   C     42.26000000    44.36000000    36.40000000
   C     42.57000000    42.88000000    36.28000000
   O     43.76000000    42.55000000    36.09000000
   O     41.71000000    41.99000000    36.42000000
   H     39.18000000    45.23000000    37.30000000
   H     41.24000000    46.78000000    35.76000000
   H     41.31000000    44.56000000    34.52000000
   H     40.24000000    43.93000000    35.80000000
   H     42.09000000    44.50000000    37.47000000
   H     43.07000000    45.02000000    36.08000000
   N     38.20000000    46.26000000    34.70000000
   C     37.22000000    46.77000000    33.76000000
   H     36.35500000    47.14700000    34.30600000
   H     37.66100000    47.57800000    33.17700000
   H     36.90500000    45.96900000    33.09200000
   H     37.82000000    45.68000000    35.44000000
  Ca     43.38000000    39.98000000    36.37000000
   O     43.71000000    40.55000000    39.00000000
   H     43.16000000    40.99000000    39.65000000
   H     44.20000000    39.90000000    39.50000000

Ca 1.70



