%chk=CaMKII_loop3_14.0.chk
%nprocshared=48
%mem=10GB
%nosave
#b3lyp/svp scf=(tight,noincore) Test 
#IOP(5/87=12) Density=Current Pop=(MK,readradii) iop(6/33=2) iop(6/42=6)

CaMKII_loop3_14.0 

   0   1
   C     84.90000000    65.58000000    27.56000000
   C     84.28000000    65.13000000    28.87000000
   O     84.95000000    64.42000000    29.62000000
   H     85.91400000    65.18800000    27.48500000
   H     84.30400000    65.20600000    26.72800000
   H     84.92900000    66.66900000    27.52600000
   N     83.11000000    65.68000000    29.20000000
   C     82.57000000    65.62000000    30.54000000
   C     81.88000000    64.29000000    30.81000000
   O     80.80000000    64.03000000    30.28000000
   C     81.79000000    66.91000000    30.75000000
   C     81.09000000    66.92000000    32.10000000
   O     81.67000000    66.45000000    33.10000000
   O     79.95000000    67.41000000    32.24000000
   H     82.66000000    66.30000000    28.55000000
   H     83.38000000    65.65000000    31.27000000
   H     81.01000000    66.97000000    29.98000000
   H     82.48000000    67.75000000    30.77000000
   N     82.51000000    63.38000000    31.56000000
   C     82.34000000    61.94000000    31.57000000
   C     81.18000000    61.39000000    32.38000000
   O     80.65000000    60.35000000    32.01000000
   C     83.69000000    61.35000000    31.98000000
   C     83.95000000    59.98000000    31.35000000
   C     85.34000000    59.43000000    31.64000000
   C     85.46000000    58.00000000    31.12000000
   N     86.68000000    57.42000000    31.70000000
   H     83.27000000    63.66000000    32.16000000
   H     82.14000000    61.67000000    30.53000000
   H     83.74000000    61.33000000    33.06000000
   H     84.51000000    61.96000000    31.61000000
   H     83.84000000    59.93000000    30.26000000
   H     83.21000000    59.26000000    31.71000000
   H     85.54000000    59.51000000    32.71000000
   H     86.07000000    60.02000000    31.08000000
   H     85.36000000    57.93000000    30.04000000
   H     84.60000000    57.43000000    31.48000000
   H     87.55000000    57.78000000    31.36000000
   H     86.71000000    57.68000000    32.68000000
   H     86.69000000    56.41000000    31.59000000
   N     80.82000000    62.08000000    33.47000000
   C     79.59000000    61.75000000    34.16000000
   C     78.47000000    62.69000000    33.72000000
   O     77.30000000    62.33000000    33.88000000
   C     79.84000000    61.93000000    35.65000000
   C     80.22000000    63.32000000    36.17000000
   O     80.70000000    64.14000000    35.36000000
   O     80.15000000    63.51000000    37.40000000
   H     81.36000000    62.92000000    33.57000000
   H     79.25000000    60.75000000    33.91000000
   H     80.67000000    61.28000000    35.93000000
   H     78.97000000    61.53000000    36.16000000
   N     78.79000000    63.84000000    33.14000000
   C     77.84000000    64.86000000    32.75000000
   C     77.52000000    65.90000000    33.82000000
   O     76.38000000    66.33000000    33.95000000
   H     79.75000000    63.95000000    32.85000000
   H     76.90000000    64.47000000    32.36000000
   H     78.40000000    65.48000000    32.04000000
   N     78.46000000    66.27000000    34.70000000
   C     78.34000000    67.17000000    35.82000000
   C     78.75000000    68.63000000    35.63000000
   O     78.71000000    69.39000000    36.59000000
   C     78.90000000    66.64000000    37.14000000
   C     80.37000000    66.90000000    37.45000000
   N     80.77000000    67.23000000    38.68000000
   O     81.22000000    66.90000000    36.57000000
   H     79.37000000    65.83000000    34.62000000
   H     77.28000000    67.14000000    36.05000000
   H     78.65000000    65.59000000    37.30000000
   H     78.32000000    67.14000000    37.92000000
   H     80.17000000    67.28000000    39.49000000
   H     81.74000000    67.37000000    38.91000000
   N     79.12000000    69.00000000    34.40000000
   C     79.57000000    70.31000000    34.00000000
   C     80.95000000    70.73000000    34.49000000
   O     81.23000000    71.93000000    34.45000000
   H     79.18000000    68.21000000    33.77000000
   H     78.84000000    71.05000000    34.32000000
   H     79.73000000    70.36000000    32.92000000
   N     81.82000000    69.89000000    35.04000000
   C     83.20000000    70.15000000    35.41000000
   C     84.11000000    69.06000000    34.87000000
   O     83.77000000    67.89000000    35.07000000
   C     83.36000000    70.21000000    36.92000000
   C     82.45000000    71.19000000    37.62000000
   C     82.91000000    72.51000000    37.78000000
   C     81.19000000    70.82000000    38.09000000
   C     82.12000000    73.47000000    38.43000000
   C     80.47000000    71.74000000    38.87000000
   C     80.95000000    73.05000000    39.09000000
   O     80.15000000    73.93000000    39.76000000
   H     81.47000000    68.94000000    35.14000000
   H     83.50000000    71.09000000    34.95000000
   H     84.41000000    70.49000000    37.04000000
   H     83.26000000    69.27000000    37.46000000
   H     83.88000000    72.64000000    37.33000000
   H     80.81000000    69.82000000    37.92000000
   H     82.46000000    74.49000000    38.52000000
   H     79.53000000    71.46000000    39.31000000
   H     79.32000000    73.51000000    39.98000000
   N     85.27000000    69.34000000    34.27000000
   C     86.14000000    68.36000000    33.65000000
   C     87.24000000    68.22000000    34.69000000
   O     87.91000000    69.19000000    35.03000000
   C     86.72000000    68.76000000    32.30000000
   C     85.68000000    68.75000000    31.18000000
   C     87.86000000    67.82000000    31.91000000
   C     85.95000000    69.72000000    30.03000000
   H     85.46000000    70.32000000    34.11000000
   H     85.63000000    67.41000000    33.49000000
   H     86.99000000    69.81000000    32.39000000
   H     84.76000000    69.17000000    31.60000000
   H     85.52000000    67.72000000    30.86000000
   H     88.08000000    67.97000000    30.85000000
   H     88.70000000    68.08000000    32.55000000
   H     87.57000000    66.77000000    32.01000000
   H     85.15000000    69.71000000    29.29000000
   H     86.14000000    70.77000000    30.28000000
   H     86.86000000    69.40000000    29.53000000
   N     87.55000000    66.98000000    35.07000000
   C     88.81000000    66.71000000    35.72000000
   C     89.95000000    66.31000000    34.79000000
   O     89.75000000    66.06000000    33.60000000
   C     88.60000000    65.73000000    36.88000000
   O     88.90000000    64.43000000    36.43000000
   H     86.90000000    66.26000000    34.80000000
   H     89.23000000    67.61000000    36.17000000
   H     87.59000000    65.89000000    37.26000000
   H     89.26000000    65.97000000    37.71000000
   H     88.59000000    63.82000000    37.10000000
   N     91.13000000    66.30000000    35.40000000
   C     92.34000000    65.94000000    34.67000000
   C     92.25000000    64.63000000    33.90000000
   O     92.53000000    64.46000000    32.72000000
   C     93.61000000    66.14000000    35.49000000
   H     91.19000000    66.57000000    36.37000000
   H     92.48000000    66.64000000    33.85000000
   H     94.41000000    66.26000000    34.77000000
   H     93.52000000    66.99000000    36.18000000
   H     93.82000000    65.29000000    36.14000000
   N     91.79000000    63.67000000    34.71000000
   C     91.63000000    62.32000000    34.23000000
   C     90.60000000    62.21000000    33.11000000
   O     90.72000000    61.35000000    32.24000000
   C     91.28000000    61.47000000    35.45000000
   H     91.80000000    63.84000000    35.71000000
   H     92.51000000    61.89000000    33.75000000
   H     92.09000000    61.61000000    36.16000000
   H     90.33000000    61.85000000    35.83000000
   H     91.32000000    60.42000000    35.16000000
   N     89.54000000    63.03000000    33.15000000
   C     88.56000000    63.09000000    32.09000000
   C     89.07000000    63.75000000    30.82000000
   O     88.80000000    63.22000000    29.74000000
   C     87.36000000    63.91000000    32.55000000
   C     86.60000000    63.26000000    33.71000000
   C     85.40000000    64.07000000    34.15000000
   O     84.31000000    64.02000000    33.53000000
   O     85.46000000    64.97000000    35.02000000
   H     89.44000000    63.72000000    33.87000000
   H     88.27000000    62.07000000    31.83000000
   H     86.66000000    64.16000000    31.76000000
   H     87.73000000    64.85000000    32.95000000
   H     87.19000000    63.16000000    34.62000000
   H     86.34000000    62.25000000    33.41000000
   N     89.92000000    64.77000000    30.86000000
   C     90.66000000    65.19000000    29.68000000
   H     91.65500000    64.74500000    29.69800000
   H     90.13300000    64.86300000    28.78400000
   H     90.74900000    66.27600000    29.67400000
   H     90.19000000    65.16000000    31.75000000
  Ca     82.84000000    65.40000000    35.20000000
   O     83.48000000    63.19000000    36.56000000
   H     84.17000000    62.60000000    36.27000000
   H     83.11000000    62.77000000    37.33000000

Ca 1.70



