%chk=CaMKII_loop3_9.0.chk
%nprocshared=48
%mem=10GB
%nosave
#b3lyp/svp scf=(tight,noincore) Test 
#IOP(5/87=12) Density=Current Pop=(MK,readradii) iop(6/33=2) iop(6/42=6)

CaMKII_loop3_9.0 

   0   1
   C     76.89000000    55.22000000    16.47000000
   C     76.88000000    53.82000000    15.87000000
   O     77.95000000    53.35000000    15.49000000
   H     76.67300000    55.95000000    15.69000000
   H     76.13200000    55.28700000    17.25100000
   H     77.87100000    55.42600000    16.89700000
   N     75.72000000    53.16000000    15.83000000
   C     75.49000000    51.91000000    15.13000000
   C     75.27000000    52.22000000    13.66000000
   O     74.16000000    52.38000000    13.16000000
   C     74.36000000    51.18000000    15.84000000
   C     74.01000000    49.79000000    15.32000000
   O     72.97000000    49.27000000    15.78000000
   O     74.74000000    49.19000000    14.50000000
   H     74.89000000    53.55000000    16.24000000
   H     76.35000000    51.25000000    15.28000000
   H     73.46000000    51.80000000    15.73000000
   H     74.68000000    51.00000000    16.87000000
   N     76.40000000    52.18000000    12.95000000
   C     76.51000000    52.59000000    11.57000000
   C     75.80000000    51.62000000    10.63000000
   O     75.23000000    52.08000000     9.65000000
   C     77.99000000    52.66000000    11.22000000
   C     78.31000000    53.00000000     9.77000000
   C     79.81000000    53.25000000     9.66000000
   C     80.22000000    53.14000000     8.19000000
   N     81.46000000    53.91000000     7.95000000
   H     77.24000000    52.05000000    13.50000000
   H     76.08000000    53.59000000    11.50000000
   H     78.54000000    51.78000000    11.56000000
   H     78.36000000    53.52000000    11.78000000
   H     77.83000000    53.94000000     9.50000000
   H     77.94000000    52.24000000     9.08000000
   H     80.44000000    52.66000000    10.32000000
   H     80.02000000    54.28000000     9.95000000
   H     79.39000000    53.60000000     7.67000000
   H     80.41000000    52.08000000     8.03000000
   H     81.55000000    54.75000000     8.50000000
   H     82.19000000    53.21000000     8.03000000
   H     81.52000000    54.15000000     6.97000000
   N     75.84000000    50.31000000    10.89000000
   C     75.08000000    49.38000000    10.08000000
   C     73.72000000    48.95000000    10.62000000
   O     73.04000000    48.20000000     9.94000000
   C     76.01000000    48.23000000     9.70000000
   C     76.69000000    47.61000000    10.91000000
   O     77.90000000    47.34000000    10.72000000
   O     75.98000000    47.24000000    11.87000000
   H     76.36000000    50.02000000    11.71000000
   H     74.87000000    49.92000000     9.15000000
   H     76.78000000    48.58000000     9.02000000
   H     75.50000000    47.41000000     9.18000000
   N     73.33000000    49.22000000    11.87000000
   C     71.99000000    49.19000000    12.42000000
   C     71.59000000    47.77000000    12.77000000
   O     70.88000000    47.12000000    12.00000000
   H     74.07000000    49.56000000    12.47000000
   H     71.18000000    49.52000000    11.76000000
   H     71.94000000    49.81000000    13.31000000
   N     72.01000000    47.29000000    13.94000000
   C     71.72000000    45.95000000    14.38000000
   C     71.67000000    45.73000000    15.89000000
   O     71.88000000    44.60000000    16.33000000
   C     72.72000000    44.98000000    13.75000000
   C     74.02000000    44.77000000    14.51000000
   N     74.57000000    43.55000000    14.43000000
   O     74.65000000    45.72000000    14.97000000
   H     72.59000000    47.91000000    14.50000000
   H     70.68000000    45.74000000    14.09000000
   H     72.86000000    45.28000000    12.72000000
   H     72.20000000    44.02000000    13.72000000
   H     74.08000000    42.82000000    13.94000000
   H     75.10000000    43.31000000    15.26000000
   N     71.63000000    46.82000000    16.66000000
   C     71.39000000    46.94000000    18.08000000
   C     72.66000000    46.82000000    18.90000000
   O     72.59000000    46.65000000    20.12000000
   H     71.54000000    47.70000000    16.16000000
   H     70.63000000    46.25000000    18.45000000
   H     70.93000000    47.90000000    18.29000000
   N     73.79000000    46.98000000    18.20000000
   C     75.15000000    47.04000000    18.68000000
   C     76.11000000    47.99000000    17.98000000
   O     75.99000000    48.19000000    16.77000000
   C     75.79000000    45.65000000    18.58000000
   C     75.34000000    44.59000000    19.54000000
   C     75.99000000    44.47000000    20.77000000
   C     74.33000000    43.69000000    19.17000000
   C     75.73000000    43.32000000    21.53000000
   C     74.03000000    42.61000000    20.00000000
   C     74.68000000    42.43000000    21.24000000
   O     74.31000000    41.50000000    22.17000000
   H     73.72000000    47.34000000    17.26000000
   H     75.21000000    47.35000000    19.73000000
   H     76.87000000    45.72000000    18.75000000
   H     75.54000000    45.30000000    17.58000000
   H     76.87000000    45.03000000    21.06000000
   H     73.81000000    43.83000000    18.23000000
   H     76.32000000    43.18000000    22.42000000
   H     73.33000000    41.84000000    19.69000000
   H     73.56000000    40.98000000    21.90000000
   N     77.13000000    48.43000000    18.71000000
   C     78.11000000    49.42000000    18.34000000
   C     79.47000000    48.75000000    18.47000000
   O     79.64000000    47.91000000    19.35000000
   C     78.00000000    50.67000000    19.20000000
   C     76.63000000    51.34000000    19.31000000
   C     78.98000000    51.72000000    18.69000000
   C     76.32000000    52.41000000    20.35000000
   H     77.10000000    48.28000000    19.71000000
   H     77.94000000    49.75000000    17.31000000
   H     78.38000000    50.44000000    20.20000000
   H     75.95000000    50.53000000    19.56000000
   H     76.44000000    51.77000000    18.32000000
   H     80.03000000    51.50000000    18.89000000
   H     78.94000000    52.00000000    17.64000000
   H     78.85000000    52.62000000    19.29000000
   H     77.12000000    53.15000000    20.42000000
   H     75.42000000    52.95000000    20.06000000
   H     76.24000000    51.90000000    21.31000000
   N     80.42000000    49.07000000    17.58000000
   C     81.80000000    48.64000000    17.58000000
   C     82.76000000    49.77000000    17.26000000
   O     82.39000000    50.92000000    17.03000000
   C     81.93000000    47.50000000    16.57000000
   O     81.58000000    47.89000000    15.26000000
   H     80.17000000    49.87000000    17.02000000
   H     82.08000000    48.28000000    18.57000000
   H     81.39000000    46.62000000    16.93000000
   H     82.97000000    47.19000000    16.52000000
   H     80.63000000    47.97000000    15.13000000
   N     84.07000000    49.48000000    17.29000000
   C     85.15000000    50.41000000    17.05000000
   C     85.14000000    51.15000000    15.72000000
   O     85.26000000    52.37000000    15.70000000
   C     86.44000000    49.70000000    17.46000000
   H     84.38000000    48.56000000    17.54000000
   H     84.89000000    51.22000000    17.73000000
   H     87.29000000    50.37000000    17.52000000
   H     86.41000000    49.36000000    18.49000000
   H     86.72000000    49.02000000    16.65000000
   N     84.88000000    50.46000000    14.60000000
   C     84.78000000    51.13000000    13.32000000
   C     83.52000000    51.98000000    13.29000000
   O     83.45000000    53.02000000    12.63000000
   C     84.80000000    50.13000000    12.17000000
   H     84.97000000    49.47000000    14.47000000
   H     85.64000000    51.76000000    13.13000000
   H     83.92000000    49.49000000    12.15000000
   H     84.87000000    50.70000000    11.24000000
   H     85.69000000    49.50000000    12.17000000
   N     82.47000000    51.66000000    14.06000000
   C     81.17000000    52.30000000    13.98000000
   C     81.22000000    53.53000000    14.87000000
   O     80.74000000    54.60000000    14.48000000
   C     80.13000000    51.25000000    14.36000000
   C     80.16000000    50.05000000    13.42000000
   C     78.94000000    49.22000000    13.83000000
   O     79.03000000    48.51000000    14.85000000
   O     77.87000000    49.26000000    13.19000000
   H     82.60000000    51.00000000    14.81000000
   H     80.98000000    52.67000000    12.98000000
   H     79.20000000    51.80000000    14.18000000
   H     80.26000000    51.00000000    15.41000000
   H     81.09000000    49.48000000    13.34000000
   H     79.94000000    50.53000000    12.48000000
   N     82.13000000    53.57000000    15.85000000
   C     82.27000000    54.62000000    16.84000000
   H     82.95900000    55.37900000    16.46900000
   H     81.29700000    55.07400000    17.02900000
   H     82.66000000    54.19800000    17.76600000
   H     82.48000000    52.67000000    16.13000000
  Ca     76.54000000    47.37000000    14.31000000
   O     77.76000000    45.27000000    13.31000000
   H     77.46000000    44.73000000    12.58000000
   H     78.54000000    44.82000000    13.64000000

Ca 1.70



