%chk=CaMKII_loop3_1.0.chk
%nprocshared=48
%mem=10GB
%nosave
#b3lyp/svp scf=(tight,noincore) Test 
#IOP(5/87=12) Density=Current Pop=(MK,readradii) iop(6/33=2) iop(6/42=6)

CaMKII_loop3_1.0 

   0   1
   C     80.31000000    56.38000000    21.33000000
   C     80.10000000    54.99000000    20.74000000
   O     81.01000000    54.49000000    20.09000000
   H     81.15700000    56.85900000    20.83800000
   H     79.41400000    56.98000000    21.17500000
   H     80.51100000    56.29500000    22.39800000
   N     78.99000000    54.28000000    20.95000000
   C     78.75000000    52.91000000    20.53000000
   C     78.34000000    52.95000000    19.07000000
   O     77.14000000    52.95000000    18.79000000
   C     77.80000000    52.20000000    21.50000000
   C     77.57000000    50.75000000    21.10000000
   O     76.61000000    50.13000000    21.61000000
   O     78.33000000    50.18000000    20.29000000
   H     78.31000000    54.72000000    21.55000000
   H     79.69000000    52.37000000    20.59000000
   H     76.87000000    52.73000000    21.71000000
   H     78.29000000    52.17000000    22.47000000
   N     79.27000000    52.92000000    18.11000000
   C     79.14000000    53.18000000    16.69000000
   C     78.55000000    52.03000000    15.88000000
   O     78.07000000    52.22000000    14.77000000
   C     80.47000000    53.76000000    16.23000000
   C     80.70000000    54.16000000    14.77000000
   C     82.00000000    54.89000000    14.44000000
   C     83.15000000    53.95000000    14.78000000
   N     84.36000000    54.21000000    13.97000000
   H     80.22000000    52.91000000    18.46000000
   H     78.40000000    53.97000000    16.61000000
   H     81.28000000    53.14000000    16.62000000
   H     80.48000000    54.68000000    16.81000000
   H     79.88000000    54.83000000    14.48000000
   H     80.70000000    53.30000000    14.11000000
   H     82.01000000    55.76000000    15.09000000
   H     82.00000000    55.18000000    13.39000000
   H     82.85000000    52.93000000    14.56000000
   H     83.55000000    54.03000000    15.79000000
   H     84.15000000    54.33000000    12.99000000
   H     84.81000000    55.08000000    14.23000000
   H     85.07000000    53.50000000    14.08000000
   N     78.55000000    50.82000000    16.45000000
   C     77.79000000    49.74000000    15.86000000
   C     76.49000000    49.41000000    16.58000000
   O     75.66000000    48.57000000    16.21000000
   C     78.66000000    48.52000000    15.60000000
   C     79.19000000    47.74000000    16.79000000
   O     79.75000000    46.63000000    16.60000000
   O     79.07000000    48.24000000    17.93000000
   H     79.11000000    50.58000000    17.26000000
   H     77.46000000    50.06000000    14.87000000
   H     79.49000000    48.91000000    15.00000000
   H     78.13000000    47.77000000    15.01000000
   N     76.35000000    50.03000000    17.75000000
   C     75.18000000    49.98000000    18.60000000
   C     75.01000000    48.65000000    19.33000000
   O     73.87000000    48.28000000    19.60000000
   H     77.01000000    50.74000000    18.06000000
   H     74.33000000    50.05000000    17.93000000
   H     75.07000000    50.75000000    19.36000000
   N     76.07000000    47.86000000    19.54000000
   C     75.94000000    46.51000000    20.04000000
   C     76.03000000    46.44000000    21.56000000
   O     76.13000000    45.31000000    22.04000000
   C     77.00000000    45.67000000    19.33000000
   C     78.30000000    45.67000000    20.11000000
   N     78.80000000    44.48000000    20.42000000
   O     78.79000000    46.68000000    20.61000000
   H     77.00000000    48.18000000    19.33000000
   H     74.99000000    46.11000000    19.70000000
   H     77.19000000    45.99000000    18.31000000
   H     76.63000000    44.64000000    19.32000000
   H     78.59000000    43.62000000    19.93000000
   H     79.58000000    44.52000000    21.07000000
   N     75.86000000    47.53000000    22.32000000
   C     75.56000000    47.54000000    23.74000000
   C     76.75000000    48.05000000    24.53000000
   O     76.77000000    48.26000000    25.74000000
   H     75.73000000    48.42000000    21.85000000
   H     75.35000000    46.52000000    24.06000000
   H     74.67000000    48.15000000    23.91000000
   N     77.90000000    48.21000000    23.86000000
   C     79.24000000    48.30000000    24.42000000
   C     80.14000000    49.31000000    23.71000000
   O     80.06000000    49.33000000    22.49000000
   C     79.88000000    46.94000000    24.19000000
   C     79.34000000    45.81000000    25.04000000
   C     79.99000000    45.55000000    26.25000000
   C     78.21000000    45.09000000    24.63000000
   C     79.40000000    44.60000000    27.09000000
   C     77.62000000    44.15000000    25.48000000
   C     78.23000000    43.89000000    26.72000000
   O     77.73000000    42.93000000    27.56000000
   H     77.86000000    48.26000000    22.86000000
   H     79.22000000    48.60000000    25.47000000
   H     80.95000000    47.03000000    24.34000000
   H     79.74000000    46.74000000    23.13000000
   H     80.93000000    46.05000000    26.45000000
   H     77.75000000    45.26000000    23.67000000
   H     79.84000000    44.34000000    28.04000000
   H     76.76000000    43.60000000    25.13000000
   H     76.87000000    42.61000000    27.30000000
   N     80.97000000    50.06000000    24.43000000
   C     81.98000000    51.02000000    24.02000000
   C     83.32000000    50.31000000    24.14000000
   O     83.74000000    49.93000000    25.23000000
   C     81.96000000    52.25000000    24.92000000
   C     80.77000000    53.14000000    24.58000000
   C     83.25000000    53.06000000    24.90000000
   C     80.60000000    54.35000000    25.49000000
   H     80.92000000    49.89000000    25.43000000
   H     81.83000000    51.35000000    22.99000000
   H     81.87000000    51.96000000    25.97000000
   H     79.87000000    52.54000000    24.73000000
   H     80.81000000    53.33000000    23.51000000
   H     84.15000000    52.48000000    25.12000000
   H     83.33000000    53.58000000    23.94000000
   H     83.19000000    53.75000000    25.74000000
   H     80.54000000    54.23000000    26.57000000
   H     81.34000000    55.10000000    25.23000000
   H     79.66000000    54.82000000    25.19000000
   N     84.05000000    50.27000000    23.02000000
   C     85.40000000    49.76000000    22.85000000
   C     86.43000000    50.86000000    22.70000000
   O     86.11000000    52.03000000    22.49000000
   C     85.40000000    48.72000000    21.73000000
   O     85.37000000    49.41000000    20.49000000
   H     83.59000000    50.71000000    22.24000000
   H     85.71000000    49.22000000    23.74000000
   H     84.57000000    48.02000000    21.79000000
   H     86.35000000    48.20000000    21.84000000
   H     84.51000000    49.83000000    20.45000000
   N     87.72000000    50.53000000    22.58000000
   C     88.79000000    51.50000000    22.46000000
   C     88.75000000    52.27000000    21.15000000
   O     88.97000000    53.47000000    21.03000000
   C     90.16000000    50.84000000    22.45000000
   H     87.95000000    49.56000000    22.72000000
   H     88.76000000    52.22000000    23.28000000
   H     90.94000000    51.60000000    22.36000000
   H     90.27000000    50.41000000    23.45000000
   H     90.07000000    50.10000000    21.66000000
   N     88.41000000    51.55000000    20.07000000
   C     88.35000000    52.07000000    18.72000000
   C     87.33000000    53.20000000    18.70000000
   O     87.49000000    54.14000000    17.92000000
   C     87.96000000    50.97000000    17.73000000
   H     88.32000000    50.55000000    20.18000000
   H     89.23000000    52.55000000    18.31000000
   H     87.80000000    51.32000000    16.71000000
   H     88.68000000    50.15000000    17.80000000
   H     86.97000000    50.57000000    17.93000000
   N     86.22000000    53.05000000    19.42000000
   C     85.02000000    53.84000000    19.47000000
   C     85.24000000    55.09000000    20.31000000
   O     85.07000000    56.23000000    19.90000000
   C     83.90000000    52.92000000    19.94000000
   C     83.52000000    51.94000000    18.83000000
   C     82.41000000    51.05000000    19.37000000
   O     82.62000000    50.22000000    20.28000000
   O     81.23000000    50.99000000    18.95000000
   H     86.26000000    52.21000000    19.99000000
   H     84.68000000    54.22000000    18.50000000
   H     83.04000000    53.58000000    20.09000000
   H     84.21000000    52.43000000    20.86000000
   H     84.31000000    51.27000000    18.50000000
   H     83.19000000    52.43000000    17.92000000
   N     85.75000000    54.88000000    21.53000000
   C     86.07000000    55.99000000    22.40000000
   H     86.93500000    56.52200000    22.00500000
   H     85.21900000    56.66900000    22.45200000
   H     86.29800000    55.61600000    23.39800000
   H     86.03000000    54.00000000    21.94000000
  Ca     80.38000000    48.70000000    19.98000000
   O     81.96000000    47.60000000    18.03000000
   H     82.91000000    47.50000000    17.91000000
   H     81.58000000    47.15000000    17.28000000

Ca 1.70



