%chk=CaMKII_loop3_11.0.chk
%nprocshared=48
%mem=10GB
%nosave
#b3lyp/svp scf=(tight,noincore) Test 
#IOP(5/87=12) Density=Current Pop=(MK,readradii) iop(6/33=2) iop(6/42=6)

CaMKII_loop3_11.0 

   0   1
   C     88.82000000    65.54000000    32.55000000
   C     88.52000000    65.45000000    34.04000000
   O     89.36000000    65.03000000    34.83000000
   H     89.86300000    65.27700000    32.37300000
   H     88.17500000    64.85000000    32.00700000
   H     88.63900000    66.55700000    32.20300000
   N     87.29000000    65.79000000    34.44000000
   C     86.79000000    65.74000000    35.80000000
   C     86.18000000    64.38000000    36.10000000
   O     84.99000000    64.17000000    35.90000000
   C     85.84000000    66.94000000    35.91000000
   C     85.46000000    67.18000000    37.36000000
   O     85.95000000    66.41000000    38.22000000
   O     84.69000000    68.15000000    37.59000000
   H     86.70000000    66.09000000    33.68000000
   H     87.55000000    65.83000000    36.57000000
   H     84.98000000    66.84000000    35.25000000
   H     86.38000000    67.85000000    35.67000000
   N     87.02000000    63.42000000    36.49000000
   C     86.72000000    62.00000000    36.61000000
   C     85.43000000    61.67000000    37.35000000
   O     84.85000000    60.62000000    37.08000000
   C     87.90000000    61.34000000    37.33000000
   C     87.83000000    59.82000000    37.48000000
   C     89.24000000    59.27000000    37.62000000
   C     89.20000000    57.76000000    37.81000000
   N     90.46000000    57.29000000    38.41000000
   H     87.93000000    63.79000000    36.70000000
   H     86.61000000    61.55000000    35.63000000
   H     88.06000000    61.81000000    38.30000000
   H     88.78000000    61.62000000    36.76000000
   H     87.39000000    59.43000000    36.56000000
   H     87.25000000    59.44000000    38.32000000
   H     89.73000000    59.69000000    38.50000000
   H     89.82000000    59.38000000    36.70000000
   H     88.95000000    57.26000000    36.87000000
   H     88.45000000    57.55000000    38.58000000
   H     91.26000000    57.71000000    37.98000000
   H     90.44000000    57.52000000    39.40000000
   H     90.52000000    56.28000000    38.31000000
   N     85.11000000    62.44000000    38.39000000
   C     84.07000000    62.13000000    39.35000000
   C     83.06000000    63.26000000    39.47000000
   O     81.97000000    63.10000000    40.02000000
   C     84.74000000    61.84000000    40.69000000
   C     85.97000000    62.71000000    40.93000000
   O     86.20000000    63.80000000    40.36000000
   O     86.80000000    62.34000000    41.79000000
   H     85.70000000    63.24000000    38.58000000
   H     83.52000000    61.24000000    39.05000000
   H     85.03000000    60.79000000    40.76000000
   H     84.07000000    61.83000000    41.55000000
   N     83.37000000    64.44000000    38.93000000
   C     82.54000000    65.62000000    38.75000000
   C     82.46000000    66.51000000    39.98000000
   O     81.53000000    66.28000000    40.75000000
   H     84.27000000    64.50000000    38.47000000
   H     81.55000000    65.30000000    38.40000000
   H     83.13000000    66.13000000    37.99000000
   N     83.35000000    67.49000000    40.17000000
   C     83.29000000    68.42000000    41.27000000
   C     83.68000000    69.83000000    40.86000000
   O     83.53000000    70.73000000    41.69000000
   C     84.11000000    68.00000000    42.49000000
   C     85.63000000    68.01000000    42.36000000
   N     86.30000000    68.00000000    43.52000000
   O     86.25000000    67.98000000    41.30000000
   H     84.09000000    67.46000000    39.48000000
   H     82.28000000    68.62000000    41.62000000
   H     83.79000000    66.99000000    42.71000000
   H     83.77000000    68.65000000    43.29000000
   H     85.80000000    68.05000000    44.39000000
   H     87.30000000    67.87000000    43.54000000
   N     84.15000000    70.13000000    39.64000000
   C     84.65000000    71.40000000    39.16000000
   C     86.17000000    71.45000000    39.20000000
   O     86.64000000    72.58000000    39.08000000
   H     84.35000000    69.30000000    39.10000000
   H     84.25000000    72.17000000    39.81000000
   H     84.31000000    71.50000000    38.12000000
   N     86.85000000    70.30000000    39.18000000
   C     88.29000000    70.32000000    39.32000000
   C     88.92000000    69.09000000    38.67000000
   O     88.48000000    67.95000000    38.77000000
   C     88.63000000    70.38000000    40.81000000
   C     88.19000000    71.66000000    41.47000000
   C     89.00000000    72.80000000    41.45000000
   C     86.95000000    71.76000000    42.13000000
   C     88.54000000    73.98000000    42.04000000
   C     86.48000000    72.97000000    42.66000000
   C     87.30000000    74.11000000    42.70000000
   O     86.92000000    75.27000000    43.31000000
   H     86.38000000    69.42000000    39.04000000
   H     88.65000000    71.17000000    38.75000000
   H     89.69000000    70.22000000    40.97000000
   H     88.14000000    69.51000000    41.25000000
   H     89.98000000    72.82000000    40.99000000
   H     86.39000000    70.85000000    42.20000000
   H     89.17000000    74.86000000    41.98000000
   H     85.49000000    73.01000000    43.11000000
   H     85.98000000    75.17000000    43.48000000
   N     90.05000000    69.31000000    37.99000000
   C     91.09000000    68.36000000    37.62000000
   C     92.34000000    68.46000000    38.48000000
   O     92.90000000    69.53000000    38.70000000
   C     91.51000000    68.72000000    36.20000000
   C     90.49000000    69.31000000    35.22000000
   C     92.20000000    67.54000000    35.53000000
   C     91.05000000    69.78000000    33.89000000
   H     90.35000000    70.27000000    38.01000000
   H     90.75000000    67.33000000    37.74000000
   H     92.28000000    69.49000000    36.22000000
   H     90.15000000    70.23000000    35.71000000
   H     89.65000000    68.66000000    34.96000000
   H     91.58000000    66.80000000    35.03000000
   H     92.99000000    67.78000000    34.81000000
   H     92.78000000    67.00000000    36.28000000
   H     90.21000000    70.15000000    33.30000000
   H     91.71000000    70.63000000    34.06000000
   H     91.61000000    68.95000000    33.46000000
   N     92.91000000    67.30000000    38.81000000
   C     94.20000000    67.07000000    39.42000000
   C     94.99000000    66.07000000    38.59000000
   O     94.51000000    65.50000000    37.61000000
   C     94.07000000    66.51000000    40.83000000
   O     93.48000000    65.24000000    40.72000000
   H     92.44000000    66.44000000    38.57000000
   H     94.69000000    68.04000000    39.54000000
   H     93.40000000    67.16000000    41.41000000
   H     95.05000000    66.37000000    41.29000000
   H     93.54000000    64.75000000    41.54000000
   N     96.27000000    65.85000000    38.90000000
   C     97.17000000    65.08000000    38.07000000
   C     96.75000000    63.65000000    37.78000000
   O     96.64000000    63.31000000    36.60000000
   C     98.60000000    65.19000000    38.57000000
   H     96.74000000    66.50000000    39.51000000
   H     97.06000000    65.59000000    37.11000000
   H     99.28000000    64.70000000    37.88000000
   H     98.82000000    66.26000000    38.59000000
   H     98.74000000    64.83000000    39.59000000
   N     96.56000000    62.78000000    38.77000000
   C     96.01000000    61.46000000    38.51000000
   C     94.70000000    61.43000000    37.73000000
   O     94.49000000    60.38000000    37.12000000
   C     95.74000000    60.85000000    39.88000000
   H     96.82000000    63.14000000    39.68000000
   H     96.70000000    60.86000000    37.91000000
   H     95.05000000    61.40000000    40.52000000
   H     95.22000000    59.90000000    39.75000000
   H     96.72000000    60.58000000    40.28000000
   N     93.85000000    62.46000000    37.80000000
   C     92.72000000    62.41000000    36.89000000
   C     93.04000000    62.85000000    35.47000000
   O     92.59000000    62.18000000    34.54000000
   C     91.71000000    63.45000000    37.35000000
   C     90.90000000    63.01000000    38.57000000
   C     89.89000000    64.05000000    39.04000000
   O     88.86000000    64.28000000    38.38000000
   O     90.11000000    64.71000000    40.08000000
   H     94.14000000    63.38000000    38.10000000
   H     92.30000000    61.40000000    36.88000000
   H     91.03000000    63.70000000    36.54000000
   H     92.26000000    64.35000000    37.63000000
   H     91.64000000    62.65000000    39.28000000
   H     90.34000000    62.12000000    38.28000000
   N     93.91000000    63.84000000    35.29000000
   C     94.53000000    64.04000000    33.99000000
   H     95.54300000    63.63800000    34.00600000
   H     93.94700000    63.52600000    33.22600000
   H     94.56600000    65.10600000    33.76400000
   H     94.13000000    64.46000000    36.06000000
  Ca     87.68000000    65.90000000    40.10000000
   O     87.70000000    64.99000000    42.56000000
   H     88.00000000    65.03000000    43.47000000
   H     87.29000000    64.12000000    42.49000000

Ca 1.70



