%chk=CaMKII_loop3_12.0.chk
%nprocshared=48
%mem=10GB
%nosave
#b3lyp/svp scf=(tight,noincore) Test 
#IOP(5/87=12) Density=Current Pop=(MK,readradii) iop(6/33=2) iop(6/42=6)

CaMKII_loop3_12.0 

   0   1
   C     77.56000000    61.20000000    19.13000000
   C     77.57000000    59.98000000    18.22000000
   O     78.66000000    59.52000000    17.88000000
   H     76.87200000    61.94500000    18.73100000
   H     77.23700000    60.90600000    20.12900000
   H     78.56300000    61.62400000    19.18100000
   N     76.38000000    59.44000000    17.94000000
   C     76.20000000    58.17000000    17.28000000
   C     76.51000000    58.39000000    15.80000000
   O     75.66000000    58.93000000    15.10000000
   C     74.83000000    57.58000000    17.59000000
   C     74.66000000    56.15000000    17.10000000
   O     73.58000000    55.55000000    17.28000000
   O     75.66000000    55.63000000    16.55000000
   H     75.55000000    59.94000000    18.21000000
   H     76.95000000    57.46000000    17.64000000
   H     74.05000000    58.27000000    17.25000000
   H     74.78000000    57.53000000    18.68000000
   N     77.67000000    57.88000000    15.37000000
   C     78.13000000    58.28000000    14.06000000
   C     77.38000000    57.65000000    12.89000000
   O     77.30000000    58.32000000    11.87000000
   C     79.64000000    58.09000000    13.98000000
   C     80.30000000    59.01000000    12.96000000
   C     81.83000000    58.91000000    13.00000000
   C     82.39000000    59.92000000    12.00000000
   N     83.84000000    59.84000000    11.79000000
   H     78.29000000    57.51000000    16.08000000
   H     77.92000000    59.35000000    14.01000000
   H     79.87000000    57.06000000    13.72000000
   H     80.07000000    58.31000000    14.96000000
   H     80.00000000    60.03000000    13.19000000
   H     79.88000000    58.81000000    11.97000000
   H     82.08000000    57.88000000    12.75000000
   H     82.18000000    59.24000000    13.97000000
   H     82.03000000    60.89000000    12.35000000
   H     81.85000000    59.70000000    11.08000000
   H     84.31000000    60.36000000    12.51000000
   H     84.12000000    58.87000000    11.74000000
   H     84.09000000    60.30000000    10.92000000
   N     76.79000000    56.47000000    13.09000000
   C     76.06000000    55.81000000    12.03000000
   C     74.60000000    55.52000000    12.34000000
   O     73.92000000    55.07000000    11.42000000
   C     76.77000000    54.52000000    11.60000000
   C     76.88000000    53.39000000    12.61000000
   O     76.46000000    53.52000000    13.78000000
   O     77.47000000    52.36000000    12.22000000
   H     77.09000000    55.94000000    13.90000000
   H     75.93000000    56.43000000    11.15000000
   H     77.78000000    54.82000000    11.32000000
   H     76.26000000    54.17000000    10.71000000
   N     74.12000000    55.95000000    13.51000000
   C     72.77000000    55.92000000    14.02000000
   C     72.15000000    54.58000000    14.39000000
   O     70.93000000    54.49000000    14.38000000
   H     74.83000000    56.28000000    14.15000000
   H     72.05000000    56.51000000    13.44000000
   H     72.81000000    56.42000000    14.99000000
   N     72.86000000    53.51000000    14.76000000
   C     72.18000000    52.30000000    15.18000000
   C     71.56000000    52.29000000    16.57000000
   O     70.87000000    51.33000000    16.92000000
   C     73.17000000    51.15000000    14.98000000
   C     74.19000000    50.98000000    16.09000000
   N     74.16000000    49.83000000    16.76000000
   O     75.01000000    51.82000000    16.46000000
   H     73.87000000    53.48000000    14.74000000
   H     71.35000000    52.21000000    14.49000000
   H     73.59000000    51.23000000    13.97000000
   H     72.54000000    50.26000000    15.02000000
   H     73.42000000    49.14000000    16.75000000
   H     74.94000000    49.68000000    17.38000000
   N     71.87000000    53.19000000    17.51000000
   C     71.45000000    53.31000000    18.89000000
   C     72.55000000    53.34000000    19.94000000
   O     72.26000000    53.09000000    21.11000000
   H     72.50000000    53.93000000    17.23000000
   H     70.85000000    52.42000000    19.05000000
   H     70.80000000    54.17000000    19.04000000
   N     73.80000000    53.43000000    19.47000000
   C     74.92000000    53.10000000    20.32000000
   C     76.21000000    53.83000000    20.01000000
   O     76.63000000    53.97000000    18.86000000
   C     75.07000000    51.58000000    20.30000000
   C     73.98000000    50.61000000    20.69000000
   C     73.89000000    50.16000000    22.02000000
   C     72.99000000    50.31000000    19.75000000
   C     72.83000000    49.31000000    22.38000000
   C     71.86000000    49.57000000    20.14000000
   C     71.76000000    49.14000000    21.47000000
   O     70.64000000    48.54000000    21.96000000
   H     73.91000000    53.53000000    18.47000000
   H     74.54000000    53.27000000    21.33000000
   H     75.87000000    51.33000000    20.99000000
   H     75.37000000    51.23000000    19.32000000
   H     74.74000000    50.32000000    22.66000000
   H     73.05000000    50.80000000    18.80000000
   H     72.69000000    48.97000000    23.39000000
   H     71.03000000    49.45000000    19.46000000
   H     69.91000000    48.43000000    21.34000000
   N     76.88000000    54.35000000    21.04000000
   C     78.13000000    55.07000000    20.87000000
   C     79.25000000    54.07000000    21.13000000
   O     79.25000000    53.36000000    22.13000000
   C     78.24000000    56.19000000    21.90000000
   C     76.91000000    56.92000000    22.06000000
   C     79.32000000    57.17000000    21.45000000
   C     76.83000000    57.95000000    23.18000000
   H     76.58000000    54.17000000    21.99000000
   H     78.22000000    55.47000000    19.86000000
   H     78.52000000    55.80000000    22.88000000
   H     76.14000000    56.20000000    22.35000000
   H     76.66000000    57.34000000    21.09000000
   H     78.86000000    57.61000000    20.57000000
   H     79.47000000    57.87000000    22.27000000
   H     80.24000000    56.65000000    21.18000000
   H     77.59000000    58.72000000    22.98000000
   H     75.88000000    58.49000000    23.12000000
   H     76.90000000    57.51000000    24.17000000
   N     80.26000000    54.04000000    20.26000000
   C     81.49000000    53.28000000    20.35000000
   C     82.71000000    54.18000000    20.47000000
   O     82.57000000    55.36000000    20.17000000
   C     81.62000000    52.39000000    19.11000000
   O     82.51000000    52.93000000    18.15000000
   H     80.21000000    54.61000000    19.43000000
   H     81.37000000    52.63000000    21.21000000
   H     80.62000000    52.27000000    18.69000000
   H     81.99000000    51.40000000    19.34000000
   H     82.54000000    52.27000000    17.46000000
   N     83.82000000    53.70000000    21.04000000
   C     84.78000000    54.71000000    21.45000000
   C     85.39000000    55.46000000    20.27000000
   O     85.91000000    56.57000000    20.37000000
   C     85.87000000    54.10000000    22.32000000
   H     84.00000000    52.72000000    21.19000000
   H     84.18000000    55.40000000    22.04000000
   H     86.59000000    53.47000000    21.79000000
   H     86.26000000    54.87000000    22.98000000
   H     85.44000000    53.44000000    23.07000000
   N     85.36000000    54.89000000    19.07000000
   C     85.74000000    55.47000000    17.79000000
   C     84.76000000    56.54000000    17.34000000
   O     85.15000000    57.61000000    16.86000000
   C     86.07000000    54.38000000    16.78000000
   H     85.01000000    53.94000000    19.08000000
   H     86.64000000    56.03000000    18.02000000
   H     85.18000000    53.78000000    16.63000000
   H     86.40000000    54.87000000    15.86000000
   H     86.88000000    53.72000000    17.09000000
   N     83.46000000    56.30000000    17.49000000
   C     82.51000000    57.38000000    17.33000000
   C     82.62000000    58.51000000    18.35000000
   O     82.65000000    59.65000000    17.89000000
   C     81.11000000    56.78000000    17.28000000
   C     80.95000000    55.62000000    16.31000000
   C     79.49000000    55.17000000    16.33000000
   O     78.95000000    54.89000000    17.41000000
   O     78.79000000    55.00000000    15.31000000
   H     83.14000000    55.43000000    17.89000000
   H     82.71000000    57.90000000    16.39000000
   H     80.27000000    57.47000000    17.16000000
   H     80.85000000    56.45000000    18.29000000
   H     81.58000000    54.78000000    16.58000000
   H     81.16000000    55.95000000    15.29000000
   N     82.79000000    58.19000000    19.63000000
   C     83.06000000    59.30000000    20.52000000
   H     83.90100000    59.87700000    20.13500000
   H     82.17900000    59.93900000    20.58200000
   H     83.30500000    58.92000000    21.51200000
   H     82.70000000    57.23000000    19.94000000
  Ca     76.96000000    53.47000000    16.32000000
   O     78.22000000    51.46000000    17.36000000
   H     78.66000000    50.93000000    16.71000000
   H     78.51000000    51.11000000    18.20000000

Ca 1.70



