%chk=CaMKII_loop3_29.0.chk
%nprocshared=48
%mem=10GB
%nosave
#b3lyp/svp scf=(tight,noincore) Test 
#IOP(5/87=12) Density=Current Pop=(MK,readradii) iop(6/33=2) iop(6/42=6)

CaMKII_loop3_29.0 

   0   1
   C     68.36000000    49.93000000    24.41000000
   C     67.03000000    49.50000000    25.01000000
   O     66.97000000    48.40000000    25.57000000
   H     69.13200000    49.21300000    24.68900000
   H     68.27400000    49.96700000    23.32400000
   H     68.62800000    50.91700000    24.78800000
   N     65.97000000    50.30000000    24.96000000
   C     64.64000000    49.95000000    25.42000000
   C     63.91000000    49.07000000    24.42000000
   O     63.71000000    49.54000000    23.30000000
   C     63.87000000    51.24000000    25.68000000
   C     62.42000000    51.10000000    26.13000000
   O     61.92000000    49.97000000    26.29000000
   O     61.82000000    52.12000000    26.52000000
   H     66.03000000    51.13000000    24.39000000
   H     64.71000000    49.49000000    26.41000000
   H     64.02000000    51.90000000    24.83000000
   H     64.45000000    51.69000000    26.49000000
   N     63.70000000    47.80000000    24.75000000
   C     63.45000000    46.76000000    23.77000000
   C     61.99000000    46.77000000    23.34000000
   O     61.67000000    46.87000000    22.16000000
   C     63.90000000    45.40000000    24.31000000
   C     63.95000000    44.31000000    23.25000000
   C     64.19000000    42.98000000    23.96000000
   C     64.75000000    41.85000000    23.09000000
   N     64.71000000    40.58000000    23.82000000
   H     63.87000000    47.53000000    25.71000000
   H     63.98000000    47.04000000    22.86000000
   H     63.23000000    45.02000000    25.08000000
   H     64.87000000    45.61000000    24.78000000
   H     64.75000000    44.52000000    22.55000000
   H     63.08000000    44.17000000    22.61000000
   H     63.20000000    42.74000000    24.33000000
   H     64.82000000    43.11000000    24.84000000
   H     65.76000000    42.07000000    22.76000000
   H     64.16000000    41.68000000    22.18000000
   H     65.40000000    40.68000000    24.55000000
   H     63.91000000    40.53000000    24.44000000
   H     64.83000000    39.83000000    23.16000000
   N     61.10000000    46.65000000    24.33000000
   C     59.67000000    46.74000000    24.13000000
   C     59.20000000    48.16000000    23.84000000
   O     58.20000000    48.38000000    23.16000000
   C     58.89000000    46.12000000    25.29000000
   C     59.32000000    46.50000000    26.69000000
   O     58.77000000    45.86000000    27.62000000
   O     60.03000000    47.48000000    26.99000000
   H     61.46000000    46.64000000    25.28000000
   H     59.46000000    46.00000000    23.35000000
   H     59.04000000    45.04000000    25.29000000
   H     57.82000000    46.21000000    25.05000000
   N     59.88000000    49.17000000    24.39000000
   C     59.61000000    50.57000000    24.16000000
   C     58.55000000    51.03000000    25.14000000
   O     57.36000000    51.08000000    24.83000000
   H     60.67000000    48.89000000    24.95000000
   H     59.26000000    50.82000000    23.16000000
   H     60.47000000    51.17000000    24.46000000
   N     58.92000000    51.48000000    26.34000000
   C     58.05000000    52.15000000    27.29000000
   C     58.61000000    53.37000000    28.02000000
   O     57.93000000    53.96000000    28.86000000
   C     57.63000000    51.08000000    28.28000000
   C     58.70000000    50.58000000    29.24000000
   N     58.30000000    50.22000000    30.46000000
   O     59.91000000    50.62000000    29.00000000
   H     59.92000000    51.59000000    26.45000000
   H     57.18000000    52.49000000    26.73000000
   H     57.20000000    50.16000000    27.88000000
   H     56.81000000    51.49000000    28.88000000
   H     57.33000000    50.04000000    30.63000000
   H     58.99000000    50.13000000    31.20000000
   N     59.82000000    53.80000000    27.68000000
   C     60.52000000    54.96000000    28.20000000
   C     61.60000000    54.57000000    29.20000000
   O     62.09000000    55.44000000    29.90000000
   H     60.30000000    53.27000000    26.97000000
   H     59.86000000    55.66000000    28.70000000
   H     61.06000000    55.42000000    27.37000000
   N     62.10000000    53.33000000    29.26000000
   C     62.88000000    52.76000000    30.34000000
   C     63.69000000    51.56000000    29.86000000
   O     63.21000000    50.79000000    29.03000000
   C     61.97000000    52.27000000    31.46000000
   C     61.25000000    53.38000000    32.19000000
   C     61.85000000    54.05000000    33.26000000
   C     59.90000000    53.52000000    31.83000000
   C     61.05000000    54.99000000    33.92000000
   C     59.11000000    54.51000000    32.43000000
   C     59.72000000    55.22000000    33.49000000
   O     59.09000000    56.25000000    34.10000000
   H     61.76000000    52.61000000    28.63000000
   H     63.49000000    53.55000000    30.77000000
   H     62.56000000    51.62000000    32.12000000
   H     61.27000000    51.56000000    31.02000000
   H     62.86000000    53.91000000    33.60000000
   H     59.43000000    52.98000000    31.02000000
   H     61.35000000    55.56000000    34.78000000
   H     58.13000000    54.82000000    32.10000000
   H     58.26000000    56.50000000    33.68000000
   N     64.86000000    51.39000000    30.48000000
   C     65.80000000    50.30000000    30.28000000
   C     65.90000000    49.44000000    31.53000000
   O     65.88000000    49.93000000    32.66000000
   C     67.11000000    50.89000000    29.78000000
   C     66.96000000    51.57000000    28.42000000
   C     68.21000000    49.84000000    29.57000000
   C     68.05000000    52.59000000    28.11000000
   H     65.06000000    52.11000000    31.16000000
   H     65.43000000    49.67000000    29.47000000
   H     67.37000000    51.63000000    30.53000000
   H     66.09000000    52.23000000    28.51000000
   H     66.75000000    50.91000000    27.58000000
   H     69.08000000    50.11000000    28.98000000
   H     68.53000000    49.48000000    30.55000000
   H     67.79000000    48.95000000    29.10000000
   H     68.00000000    53.38000000    28.87000000
   H     69.03000000    52.14000000    27.99000000
   H     67.97000000    52.97000000    27.10000000
   N     65.96000000    48.10000000    31.48000000
   C     66.28000000    47.21000000    32.57000000
   C     67.60000000    46.47000000    32.42000000
   O     68.32000000    46.59000000    31.43000000
   C     65.22000000    46.12000000    32.68000000
   O     65.27000000    45.16000000    31.65000000
   H     65.66000000    47.63000000    30.64000000
   H     66.30000000    47.79000000    33.49000000
   H     64.20000000    46.51000000    32.68000000
   H     65.15000000    45.64000000    33.66000000
   H     64.47000000    44.63000000    31.58000000
   N     68.02000000    45.67000000    33.41000000
   C     69.12000000    44.73000000    33.31000000
   C     69.01000000    43.72000000    32.19000000
   O     69.99000000    43.63000000    31.45000000
   C     69.28000000    44.15000000    34.72000000
   H     67.45000000    45.66000000    34.24000000
   H     70.04000000    45.28000000    33.10000000
   H     68.56000000    43.34000000    34.77000000
   H     70.28000000    43.71000000    34.70000000
   H     69.12000000    44.90000000    35.49000000
   N     67.90000000    42.99000000    32.00000000
   C     67.64000000    42.12000000    30.88000000
   C     67.64000000    42.85000000    29.54000000
   O     67.91000000    42.24000000    28.51000000
   C     66.35000000    41.34000000    31.11000000
   H     67.29000000    42.94000000    32.80000000
   H     68.44000000    41.38000000    30.86000000
   H     66.52000000    40.59000000    31.89000000
   H     65.56000000    42.02000000    31.43000000
   H     66.00000000    40.81000000    30.22000000
   N     67.26000000    44.13000000    29.51000000
   C     67.34000000    44.93000000    28.30000000
   C     68.73000000    45.39000000    27.91000000
   O     69.14000000    45.33000000    26.75000000
   C     66.34000000    46.09000000    28.30000000
   C     64.92000000    45.55000000    28.13000000
   C     63.91000000    46.68000000    28.26000000
   O     62.89000000    46.70000000    27.54000000
   O     64.00000000    47.64000000    29.05000000
   H     66.84000000    44.55000000    30.33000000
   H     67.08000000    44.41000000    27.39000000
   H     66.50000000    46.58000000    27.34000000
   H     66.47000000    46.60000000    29.25000000
   H     64.76000000    44.89000000    28.98000000
   H     64.68000000    44.97000000    27.24000000
   N     69.60000000    45.74000000    28.87000000
   C     70.98000000    46.08000000    28.58000000
   H     71.61700000    45.22100000    28.79000000
   H     71.07400000    46.35300000    27.52900000
   H     71.28700000    46.92000000    29.20300000
   H     69.27000000    45.52000000    29.80000000
  Ca     61.56000000    48.68000000    28.60000000
   O     59.81000000    47.07000000    29.83000000
   H     59.24000000    46.89000000    30.57000000
   H     59.44000000    46.55000000    29.11000000

Ca 1.70



