%Nproc=28
%chk=holo53.0.chk
%mem=80GB
%NoSave
#MP2(semidirect)/Gen scf=(tight,noincore) Test
#IOP(5/87=12) Density=Current Pop=(MK,readradii) iop(6/33=2) iop(6/42=6)

holo_loop_3_model_53.0 

   0   1
   C     40.51000000    72.72000000    12.60000000
   C     39.27000000    72.71000000    11.71000000
   C     38.85000000    74.05000000    11.13000000
   O     37.66000000    74.28000000    10.92000000
   O     39.76000000    75.04000000    10.91000000
   H     40.80600000    71.68300000    12.75700000
   H     40.26200000    73.21900000    13.53700000
   H     41.35000000    73.23000000    12.15000000
   H     38.38000000    72.23000000    12.11000000
   H     39.65000000    72.18000000    10.83000000
   H     40.59000000    74.92000000    11.37000000
   C     41.39000000    77.58000000    14.62000000
   C     42.47000000    77.85000000    13.58000000
   C     42.28000000    77.15000000    12.25000000
   O     42.49000000    77.87000000    11.24000000
   O     42.01000000    75.93000000    12.18000000
   H     41.47700000    76.54400000    14.94800000
   H     40.41200000    77.75900000    14.17300000
   H     41.51000000    78.23000000    15.49000000
   H     43.46000000    77.59000000    13.96000000
   H     42.50000000    78.90000000    13.27000000
   C     47.29000000    71.08000000    12.21000000
   C     46.16000000    71.85000000    11.55000000
   C     46.55000000    73.23000000    11.02000000
   C     45.39000000    74.14000000    10.61000000
   O     44.93000000    75.00000000    11.39000000
   O     44.77000000    73.87000000     9.56000000
   H     48.23800000    71.18100000    11.68200000
   H     47.07600000    70.01100000    12.22800000
   H     47.32000000    71.49000000    13.22000000
   H     45.27000000    71.85000000    12.18000000
   H     45.90000000    71.27000000    10.66000000
   H     47.31000000    73.17000000    10.24000000
   H     47.03000000    73.80000000    11.81000000
  Ca     43.22000000    75.89000000     9.58000000
   O     44.13000000    75.39000000     7.10000000
   H     44.79000000    74.69000000     7.14000000
   H     44.12000000    75.66000000     6.19000000

C O H 0
aug-cc-pVTZ 
****
@/home/pzhang5/ca_ccpvtz_basisset.gbs/N

Ca 1.70




