%Nproc=28
%chk=holo35.0.chk
%mem=80GB
%NoSave
#MP2(semidirect)/Gen scf=(tight,noincore) Test
#IOP(5/87=12) Density=Current Pop=(MK,readradii) iop(6/33=2) iop(6/42=6)

holo_loop_3_model_35.0 

   0   1
   C     32.22000000    73.17000000     9.50000000
   C     31.36000000    72.56000000     8.40000000
   C     30.23000000    73.42000000     7.85000000
   O     29.04000000    73.11000000     7.89000000
   O     30.58000000    74.66000000     7.39000000
   H     32.88700000    72.41700000     9.92100000
   H     31.58400000    73.55200000    10.29900000
   H     32.80000000    73.99000000     9.06000000
   H     30.88000000    71.70000000     8.86000000
   H     31.92000000    72.21000000     7.53000000
   H     31.50000000    74.68000000     7.11000000
   C     30.44000000    78.09000000    11.31000000
   C     31.27000000    79.00000000    10.41000000
   C     31.91000000    78.31000000     9.21000000
   O     33.11000000    78.47000000     8.92000000
   O     31.17000000    77.60000000     8.49000000
   H     30.95400000    77.15900000    11.55000000
   H     29.51000000    77.80400000    10.81900000
   H     30.24000000    78.70000000    12.20000000
   H     32.09000000    79.38000000    11.02000000
   H     30.65000000    79.80000000    10.00000000
   C     39.08000000    75.14000000     9.74000000
   C     37.79000000    75.19000000     8.93000000
   C     37.23000000    76.60000000     8.77000000
   C     35.95000000    76.79000000     7.96000000
   O     35.87000000    77.80000000     7.21000000
   O     34.94000000    76.08000000     8.13000000
   H     39.83300000    75.63300000     9.12500000
   H     39.29900000    74.09400000     9.95700000
   H     39.07000000    75.68000000    10.68000000
   H     37.05000000    74.52000000     9.36000000
   H     37.92000000    74.75000000     7.94000000
   H     37.96000000    77.22000000     8.24000000
   H     36.99000000    76.97000000     9.76000000
  Ca     33.28000000    77.25000000     6.64000000
   O     34.58000000    77.40000000     4.46000000
   H     35.44000000    77.81000000     4.40000000
   H     34.15000000    77.63000000     3.63000000

C O H 0
aug-cc-pVTZ 
****
@/home/pzhang5/ca_ccpvtz_basisset.gbs/N

Ca 1.70




