%Nproc=28
%chk=holo26.0.chk
%mem=80GB
%NoSave
#MP2(semidirect)/Gen scf=(tight,noincore) Test
#IOP(5/87=12) Density=Current Pop=(MK,readradii) iop(6/33=2) iop(6/42=6)

holo_loop_3_model_26.0 

   0   1
   C     30.75000000    72.43000000    10.14000000
   C     29.89000000    71.70000000     9.11000000
   C     28.57000000    72.32000000     8.69000000
   O     27.55000000    71.65000000     8.81000000
   O     28.42000000    73.62000000     8.31000000
   H     31.36600000    71.71300000    10.68200000
   H     30.10800000    72.95400000    10.84800000
   H     31.39000000    73.15000000     9.62000000
   H     29.54000000    70.69000000     9.33000000
   H     30.45000000    71.52000000     8.19000000
   H     29.19000000    74.15000000     8.54000000
   C     29.41000000    77.26000000    11.76000000
   C     30.32000000    77.62000000    10.59000000
   C     30.04000000    76.91000000     9.28000000
   O     30.09000000    75.66000000     9.19000000
   O     29.90000000    77.63000000     8.26000000
   H     29.65100000    76.25500000    12.10700000
   H     28.37000000    77.29600000    11.43500000
   H     29.56000000    77.97000000    12.58000000
   H     31.38000000    77.53000000    10.84000000
   H     30.33000000    78.69000000    10.38000000
   C     37.46000000    74.47000000     9.65000000
   C     36.05000000    74.65000000     9.10000000
   C     35.60000000    76.09000000     8.83000000
   C     34.30000000    76.15000000     8.04000000
   O     33.35000000    76.79000000     8.55000000
   O     34.27000000    75.71000000     6.87000000
   H     38.21300000    74.88300000     8.97800000
   H     37.69100000    73.41200000     9.77000000
   H     37.46000000    74.97000000    10.61000000
   H     35.27000000    74.22000000     9.73000000
   H     36.02000000    74.17000000     8.13000000
   H     36.39000000    76.61000000     8.28000000
   H     35.41000000    76.56000000     9.79000000
  Ca     31.45000000    76.21000000     6.73000000
   O     32.10000000    76.14000000     3.94000000
   H     32.00000000    76.91000000     3.38000000
   H     32.69000000    75.57000000     3.44000000

C O H 0
aug-cc-pVTZ 
****
@/home/pzhang5/ca_ccpvtz_basisset.gbs/N

Ca 1.70




