%Nproc=28
%chk=holo73.0.chk
%mem=80GB
%NoSave
#MP2(semidirect)/Gen scf=(tight,noincore) Test
#IOP(5/87=12) Density=Current Pop=(MK,readradii) iop(6/33=2) iop(6/42=6)

holo_loop_3_model_73.0 

   0   1
   C     44.40000000    46.77000000    44.91000000
   C     43.73000000    48.14000000    44.74000000
   C     42.69000000    48.40000000    45.81000000
   O     41.49000000    48.47000000    45.56000000
   O     43.23000000    48.68000000    47.03000000
   H     45.22500000    46.66900000    44.20500000
   H     43.67500000    45.97900000    44.71800000
   H     44.77000000    46.69000000    45.93000000
   H     43.37000000    48.17000000    43.71000000
   H     44.46000000    48.95000000    44.78000000
   H     42.48000000    48.90000000    47.58000000
   C     41.48000000    43.68000000    48.07000000
   C     42.10000000    44.09000000    49.40000000
   C     42.83000000    45.42000000    49.33000000
   O     42.61000000    46.30000000    48.47000000
   O     43.59000000    45.67000000    50.29000000
   H     42.18900000    43.81800000    47.25300000
   H     40.60400000    44.29400000    47.86000000
   H     41.19000000    42.63000000    48.16000000
   H     42.79000000    43.34000000    49.78000000
   H     41.35000000    44.12000000    50.19000000
   C     51.32000000    46.59000000    48.34000000
   C     49.91000000    47.10000000    48.06000000
   C     49.07000000    46.69000000    49.26000000
   C     47.62000000    47.15000000    49.24000000
   O     46.73000000    46.27000000    49.25000000
   O     47.29000000    48.33000000    49.00000000
   H     51.79000000    47.16600000    49.13700000
   H     51.93800000    46.68800000    47.44800000
   H     51.23000000    45.54000000    48.62000000
   H     49.51000000    46.65000000    47.15000000
   H     49.83000000    48.19000000    47.99000000
   H     49.39000000    46.95000000    50.27000000
   H     48.95000000    45.60000000    49.35000000
  Ca     44.56000000    47.87000000    49.37000000
   O     44.62000000    48.58000000    51.87000000
   H     44.28000000    48.20000000    52.68000000
   H     44.57000000    49.53000000    52.02000000

C O H 0
aug-cc-pVTZ 
****
@/home/pzhang5/ca_ccpvtz_basisset.gbs/N

Ca 1.70




