%chk=Ng-293_loop3_39.0.chk
%nprocshared=48
%mem=10GB
%nosave
#b3lyp/svp scf=(tight,noincore) Test 
#IOP(5/87=12) Density=Current Pop=(MK,readradii) iop(6/33=2) iop(6/42=6)

Ng-293_loop3_39.0 

   0   1
   C     54.56000000    22.00000000    11.12000000
   C     54.76000000    23.20000000    10.21000000
   O     55.10000000    24.30000000    10.66000000
   H     53.54000000    21.63000000    11.01400000
   H     55.26100000    21.21300000    10.84400000
   H     54.73300000    22.29500000    12.15500000
   N     54.43000000    23.01000000     8.93000000
   C     53.95000000    24.12000000     8.12000000
   C     52.92000000    25.01000000     8.80000000
   O     53.16000000    25.79000000     9.72000000
   C     55.05000000    24.90000000     7.41000000
   C     55.76000000    24.09000000     6.33000000
   O     55.28000000    24.20000000     5.18000000
   O     56.76000000    23.38000000     6.57000000
   H     54.33000000    22.09000000     8.54000000
   H     53.38000000    23.72000000     7.28000000
   H     55.80000000    25.24000000     8.12000000
   H     54.62000000    25.79000000     6.94000000
   N     51.71000000    25.00000000     8.22000000
   C     50.49000000    25.61000000     8.72000000
   C     50.68000000    27.12000000     8.77000000
   O     50.67000000    27.86000000     7.79000000
   C     49.91000000    24.96000000     9.97000000
   C     49.80000000    23.44000000     9.90000000
   C     49.27000000    22.85000000    11.20000000
   C     49.42000000    21.33000000    11.14000000
   N     49.02000000    20.76000000    12.43000000
   H     51.59000000    24.42000000     7.41000000
   H     49.74000000    25.49000000     7.94000000
   H     48.93000000    25.31000000    10.30000000
   H     50.60000000    25.05000000    10.81000000
   H     50.81000000    23.08000000     9.69000000
   H     49.21000000    23.15000000     9.03000000
   H     48.21000000    23.10000000    11.19000000
   H     49.75000000    23.26000000    12.09000000
   H     50.50000000    21.17000000    11.09000000
   H     48.95000000    20.94000000    10.23000000
   H     48.96000000    19.76000000    12.50000000
   H     49.53000000    21.03000000    13.26000000
   H     48.04000000    21.01000000    12.52000000
   N     50.76000000    27.66000000     9.99000000
   C     50.69000000    29.06000000    10.35000000
   C     52.01000000    29.52000000    10.97000000
   O     52.56000000    28.81000000    11.81000000
   C     49.50000000    29.32000000    11.27000000
   C     49.54000000    30.75000000    11.79000000
   O     49.95000000    31.56000000    10.94000000
   O     49.26000000    31.17000000    12.93000000
   H     51.01000000    27.00000000    10.71000000
   H     50.46000000    29.65000000     9.47000000
   H     49.61000000    28.72000000    12.17000000
   H     48.59000000    29.16000000    10.68000000
   N     52.63000000    30.62000000    10.53000000
   C     53.85000000    31.14000000    11.11000000
   C     53.76000000    32.01000000    12.35000000
   O     52.71000000    32.51000000    12.75000000
   H     52.16000000    31.23000000     9.88000000
   H     54.34000000    31.77000000    10.37000000
   H     54.51000000    30.30000000    11.33000000
   N     54.86000000    32.26000000    13.06000000
   C     54.92000000    33.02000000    14.30000000
   C     56.16000000    33.88000000    14.41000000
   O     56.26000000    34.77000000    15.26000000
   C     54.82000000    32.02000000    15.45000000
   C     53.58000000    31.13000000    15.51000000
   N     52.37000000    31.61000000    15.79000000
   O     53.65000000    29.91000000    15.37000000
   H     55.70000000    31.86000000    12.67000000
   H     54.08000000    33.72000000    14.35000000
   H     54.82000000    32.61000000    16.36000000
   H     55.65000000    31.31000000    15.44000000
   H     52.21000000    32.60000000    15.86000000
   H     51.61000000    30.94000000    15.77000000
   N     57.15000000    33.72000000    13.53000000
   C     58.38000000    34.49000000    13.59000000
   C     59.02000000    34.39000000    14.97000000
   O     59.03000000    33.36000000    15.63000000
   H     57.02000000    33.04000000    12.79000000
   H     58.11000000    35.50000000    13.29000000
   H     59.14000000    34.08000000    12.93000000
   N     59.55000000    35.48000000    15.52000000
   C     59.97000000    35.62000000    16.91000000
   C     58.97000000    35.38000000    18.03000000
   O     59.18000000    35.80000000    19.17000000
   C     61.27000000    34.92000000    17.26000000
   C     62.35000000    35.02000000    16.21000000
   C     62.70000000    33.91000000    15.43000000
   C     63.01000000    36.24000000    16.04000000
   C     63.71000000    34.05000000    14.47000000
   C     63.95000000    36.38000000    15.01000000
   C     64.39000000    35.27000000    14.26000000
   O     65.41000000    35.45000000    13.37000000
   H     59.52000000    36.28000000    14.91000000
   H     60.18000000    36.68000000    17.02000000
   H     61.11000000    33.86000000    17.47000000
   H     61.67000000    35.36000000    18.17000000
   H     62.13000000    32.99000000    15.42000000
   H     62.82000000    37.13000000    16.62000000
   H     63.98000000    33.21000000    13.86000000
   H     64.28000000    37.38000000    14.79000000
   H     65.68000000    36.36000000    13.24000000
   N     57.77000000    34.84000000    17.77000000
   C     56.68000000    34.41000000    18.61000000
   C     55.95000000    35.53000000    19.34000000
   O     54.72000000    35.56000000    19.30000000
   C     57.15000000    33.30000000    19.56000000
   C     57.69000000    32.02000000    18.93000000
   C     55.98000000    32.87000000    20.44000000
   C     58.60000000    31.15000000    19.78000000
   H     57.57000000    34.57000000    16.82000000
   H     55.90000000    34.01000000    17.97000000
   H     57.99000000    33.69000000    20.14000000
   H     58.26000000    32.22000000    18.02000000
   H     56.90000000    31.34000000    18.60000000
   H     55.63000000    33.67000000    21.08000000
   H     55.23000000    32.44000000    19.77000000
   H     56.32000000    32.06000000    21.09000000
   H     58.11000000    30.50000000    20.51000000
   H     59.24000000    30.56000000    19.12000000
   H     59.20000000    31.79000000    20.43000000
   N     56.69000000    36.41000000    20.02000000
   C     56.22000000    37.68000000    20.53000000
   C     55.19000000    37.52000000    21.64000000
   O     54.42000000    38.45000000    21.87000000
   C     57.42000000    38.46000000    21.04000000
   O     58.36000000    38.84000000    20.05000000
   H     57.68000000    36.20000000    20.06000000
   H     55.71000000    38.22000000    19.73000000
   H     58.02000000    37.80000000    21.68000000
   H     57.15000000    39.39000000    21.54000000
   H     59.18000000    38.95000000    20.54000000
   N     55.24000000    36.39000000    22.34000000
   C     54.29000000    35.97000000    23.35000000
   C     52.80000000    35.95000000    23.07000000
   O     51.97000000    36.34000000    23.89000000
   C     54.69000000    36.69000000    24.64000000
   H     56.06000000    35.82000000    22.16000000
   H     54.57000000    34.93000000    23.55000000
   H     54.09000000    36.41000000    25.50000000
   H     55.67000000    36.41000000    25.03000000
   H     54.63000000    37.76000000    24.46000000
   N     52.56000000    35.87000000    21.75000000
   C     51.28000000    36.16000000    21.15000000
   C     50.79000000    34.94000000    20.39000000
   O     51.63000000    34.09000000    20.10000000
   C     51.37000000    37.42000000    20.30000000
   H     53.35000000    35.74000000    21.14000000
   H     50.53000000    36.35000000    21.92000000
   H     50.36000000    37.59000000    19.92000000
   H     51.64000000    38.29000000    20.90000000
   H     52.00000000    37.28000000    19.43000000
   N     49.52000000    34.99000000    19.99000000
   C     48.75000000    33.93000000    19.36000000
   C     48.58000000    32.61000000    20.10000000
   O     48.06000000    31.68000000    19.48000000
   C     49.24000000    33.68000000    17.94000000
   C     49.16000000    34.86000000    16.98000000
   C     49.43000000    34.44000000    15.54000000
   O     50.29000000    33.56000000    15.33000000
   O     49.00000000    35.09000000    14.56000000
   H     48.99000000    35.84000000    20.13000000
   H     47.72000000    34.29000000    19.35000000
   H     48.80000000    32.76000000    17.55000000
   H     50.28000000    33.39000000    18.07000000
   H     49.81000000    35.64000000    17.36000000
   H     48.17000000    35.31000000    17.04000000
   N     48.95000000    32.43000000    21.37000000
   C     49.23000000    31.15000000    21.99000000
   H     50.11400000    31.23900000    22.62200000
   H     48.37800000    30.84600000    22.59800000
   H     49.41000000    30.40300000    21.21700000
   H     49.20000000    33.23000000    21.93000000
  Ca     50.29000000    33.77000000    12.68000000
   O     52.19000000    35.37000000    13.72000000
   H     52.30000000    35.82000000    14.56000000
   H     53.08000000    35.27000000    13.39000000

Ca 1.70



