%chk=Ng-293_loop3_19.0.chk
%nprocshared=48
%mem=10GB
%nosave
#b3lyp/svp scf=(tight,noincore) Test 
#IOP(5/87=12) Density=Current Pop=(MK,readradii) iop(6/33=2) iop(6/42=6)

Ng-293_loop3_19.0 

   0   1
   C     69.58000000    14.04000000    13.40000000
   C     70.44000000    14.49000000    12.23000000
   O     70.95000000    15.60000000    12.16000000
   H     68.60300000    13.72700000    13.03300000
   H     70.06200000    13.20400000    13.90600000
   H     69.45700000    14.86600000    14.10000000
   N     70.57000000    13.63000000    11.21000000
   C     71.33000000    13.88000000    10.00000000
   C     71.01000000    15.24000000     9.40000000
   O     71.87000000    16.05000000     9.04000000
   C     72.83000000    13.60000000    10.07000000
   C     73.13000000    12.35000000    10.89000000
   O     73.60000000    12.47000000    12.04000000
   O     73.08000000    11.23000000    10.35000000
   H     70.08000000    12.76000000    11.35000000
   H     70.98000000    13.15000000     9.28000000
   H     73.34000000    14.42000000    10.57000000
   H     73.32000000    13.50000000     9.11000000
   N     69.73000000    15.46000000     9.12000000
   C     69.16000000    16.53000000     8.32000000
   C     69.56000000    17.95000000     8.69000000
   O     70.20000000    18.62000000     7.89000000
   C     67.64000000    16.42000000     8.17000000
   C     67.11000000    15.15000000     7.50000000
   C     67.51000000    15.04000000     6.03000000
   C     66.87000000    13.81000000     5.39000000
   N     66.97000000    13.87000000     3.92000000
   H     69.08000000    14.73000000     9.37000000
   H     69.56000000    16.43000000     7.31000000
   H     67.26000000    17.29000000     7.64000000
   H     67.24000000    16.46000000     9.19000000
   H     66.03000000    15.24000000     7.52000000
   H     67.45000000    14.33000000     8.13000000
   H     68.59000000    14.92000000     6.05000000
   H     67.25000000    15.97000000     5.53000000
   H     65.80000000    13.78000000     5.63000000
   H     67.23000000    12.87000000     5.81000000
   H     66.85000000    12.93000000     3.59000000
   H     66.24000000    14.43000000     3.51000000
   H     67.87000000    14.18000000     3.59000000
   N     69.25000000    18.44000000     9.90000000
   C     69.27000000    19.87000000    10.14000000
   C     69.73000000    20.20000000    11.56000000
   O     70.00000000    19.36000000    12.41000000
   C     67.83000000    20.30000000     9.87000000
   C     67.82000000    21.60000000     9.08000000
   O     67.72000000    22.62000000     9.79000000
   O     67.88000000    21.55000000     7.83000000
   H     68.87000000    17.86000000    10.63000000
   H     69.96000000    20.31000000     9.43000000
   H     67.33000000    20.42000000    10.83000000
   H     67.24000000    19.51000000     9.40000000
   N     69.84000000    21.50000000    11.81000000
   C     70.31000000    22.08000000    13.06000000
   C     69.66000000    23.42000000    13.35000000
   O     68.77000000    23.89000000    12.65000000
   H     69.64000000    22.12000000    11.04000000
   H     71.39000000    22.21000000    12.98000000
   H     70.05000000    21.50000000    13.95000000
   N     70.05000000    24.07000000    14.45000000
   C     69.61000000    25.40000000    14.82000000
   C     70.78000000    26.34000000    15.07000000
   O     70.71000000    27.39000000    15.71000000
   C     68.65000000    25.32000000    16.00000000
   C     67.59000000    24.23000000    15.96000000
   N     66.30000000    24.57000000    16.09000000
   O     67.82000000    23.03000000    15.83000000
   H     70.74000000    23.66000000    15.07000000
   H     69.00000000    25.82000000    14.02000000
   H     68.16000000    26.26000000    16.25000000
   H     69.31000000    25.09000000    16.84000000
   H     66.01000000    25.53000000    16.24000000
   H     65.53000000    23.93000000    15.99000000
   N     71.97000000    25.95000000    14.62000000
   C     73.24000000    26.63000000    14.78000000
   C     73.57000000    26.74000000    16.26000000
   O     73.46000000    25.77000000    17.01000000
   H     72.01000000    25.00000000    14.27000000
   H     73.07000000    27.62000000    14.37000000
   H     73.99000000    26.07000000    14.22000000
   N     73.88000000    27.97000000    16.68000000
   C     73.92000000    28.42000000    18.05000000
   C     72.65000000    28.35000000    18.89000000
   O     72.49000000    29.23000000    19.73000000
   C     75.04000000    27.82000000    18.90000000
   C     76.41000000    27.84000000    18.28000000
   C     76.74000000    26.79000000    17.41000000
   C     77.29000000    28.89000000    18.55000000
   C     78.00000000    26.87000000    16.79000000
   C     78.53000000    28.99000000    17.90000000
   C     78.88000000    27.94000000    17.03000000
   O     80.08000000    28.03000000    16.39000000
   H     73.90000000    28.67000000    15.95000000
   H     74.16000000    29.47000000    17.88000000
   H     74.80000000    26.81000000    19.23000000
   H     75.05000000    28.42000000    19.82000000
   H     76.10000000    25.95000000    17.21000000
   H     76.94000000    29.68000000    19.20000000
   H     78.43000000    26.15000000    16.11000000
   H     79.05000000    29.92000000    18.08000000
   H     80.62000000    28.78000000    16.66000000
   N     71.69000000    27.45000000    18.66000000
   C     70.33000000    27.30000000    19.13000000
   C     69.53000000    28.60000000    19.11000000
   O     68.61000000    28.67000000    18.30000000
   C     70.34000000    26.48000000    20.41000000
   C     71.12000000    25.18000000    20.27000000
   C     68.88000000    26.13000000    20.72000000
   C     71.75000000    24.87000000    21.62000000
   H     71.89000000    26.88000000    17.85000000
   H     69.78000000    26.73000000    18.38000000
   H     70.68000000    27.05000000    21.27000000
   H     71.94000000    25.18000000    19.54000000
   H     70.50000000    24.36000000    19.90000000
   H     68.22000000    26.99000000    20.62000000
   H     68.53000000    25.34000000    20.07000000
   H     68.73000000    25.68000000    21.70000000
   H     72.17000000    23.86000000    21.58000000
   H     72.44000000    25.63000000    21.99000000
   H     70.95000000    24.81000000    22.36000000
   N     69.78000000    29.62000000    19.94000000
   C     69.30000000    30.94000000    19.61000000
   C     67.82000000    31.23000000    19.81000000
   O     67.35000000    32.29000000    19.40000000
   C     70.18000000    32.00000000    20.27000000
   O     71.08000000    32.60000000    19.35000000
   H     70.62000000    29.53000000    20.49000000
   H     69.50000000    31.08000000    18.54000000
   H     70.72000000    31.58000000    21.12000000
   H     69.54000000    32.76000000    20.71000000
   H     71.69000000    33.19000000    19.79000000
   N     67.04000000    30.35000000    20.44000000
   C     65.60000000    30.26000000    20.48000000
   C     65.02000000    30.39000000    19.08000000
   O     63.86000000    30.73000000    18.86000000
   C     65.02000000    31.29000000    21.45000000
   H     67.56000000    29.58000000    20.85000000
   H     65.38000000    29.30000000    20.96000000
   H     63.94000000    31.20000000    21.54000000
   H     65.61000000    31.29000000    22.36000000
   H     65.18000000    32.31000000    21.10000000
   N     65.75000000    29.90000000    18.08000000
   C     65.26000000    29.83000000    16.71000000
   C     64.82000000    28.44000000    16.27000000
   O     65.31000000    27.43000000    16.76000000
   C     66.33000000    30.16000000    15.68000000
   H     66.68000000    29.53000000    18.23000000
   H     64.48000000    30.59000000    16.61000000
   H     66.57000000    31.19000000    15.96000000
   H     67.24000000    29.59000000    15.79000000
   H     66.03000000    30.00000000    14.64000000
   N     63.90000000    28.34000000    15.31000000
   C     63.40000000    27.16000000    14.63000000
   C     62.88000000    26.05000000    15.52000000
   O     63.08000000    24.85000000    15.34000000
   C     64.34000000    26.65000000    13.53000000
   C     65.05000000    27.64000000    12.61000000
   C     66.04000000    27.01000000    11.64000000
   O     67.26000000    26.97000000    11.89000000
   O     65.64000000    26.45000000    10.60000000
   H     63.47000000    29.20000000    15.00000000
   H     62.52000000    27.43000000    14.05000000
   H     63.65000000    26.02000000    12.97000000
   H     65.04000000    25.94000000    13.96000000
   H     65.57000000    28.43000000    13.15000000
   H     64.22000000    27.99000000    11.99000000
   N     62.26000000    26.45000000    16.64000000
   C     61.93000000    25.64000000    17.79000000
   H     60.90600000    25.27900000    17.69700000
   H     62.61100000    24.79100000    17.84400000
   H     62.02300000    26.23900000    18.69600000
   H     62.07000000    27.44000000    16.65000000
  Ca     67.76000000    25.05000000    10.18000000
   O     70.15000000    25.78000000    10.75000000
   H     70.37000000    26.60000000    11.19000000
   H     71.00000000    25.36000000    10.60000000

Ca 1.70



