%chk=Ng-293_loop3_37.0.chk
%nprocshared=48
%mem=10GB
%nosave
#b3lyp/svp scf=(tight,noincore) Test 
#IOP(5/87=12) Density=Current Pop=(MK,readradii) iop(6/33=2) iop(6/42=6)

Ng-293_loop3_37.0 

   0   1
   C     66.43000000    27.50000000    21.38000000
   C     67.52000000    28.36000000    20.76000000
   O     67.43000000    29.59000000    20.71000000
   H     65.53000000    27.55700000    20.76700000
   H     66.76800000    26.46500000    21.43200000
   H     66.20900000    27.86100000    22.38400000
   N     68.58000000    27.67000000    20.32000000
   C     69.74000000    28.20000000    19.64000000
   C     69.56000000    29.20000000    18.50000000
   O     70.30000000    30.13000000    18.20000000
   C     70.74000000    28.76000000    20.66000000
   C     72.22000000    28.80000000    20.31000000
   O     72.97000000    29.57000000    20.94000000
   O     72.68000000    28.13000000    19.35000000
   H     68.51000000    26.66000000    20.25000000
   H     70.14000000    27.30000000    19.18000000
   H     70.56000000    28.17000000    21.56000000
   H     70.29000000    29.71000000    20.94000000
   N     68.40000000    29.07000000    17.84000000
   C     67.96000000    29.83000000    16.69000000
   C     67.71000000    31.31000000    16.89000000
   O     67.85000000    31.97000000    15.86000000
   C     66.64000000    29.27000000    16.16000000
   C     66.72000000    27.89000000    15.52000000
   C     65.51000000    27.57000000    14.65000000
   C     65.82000000    26.42000000    13.69000000
   N     66.24000000    25.26000000    14.49000000
   H     67.74000000    28.43000000    18.27000000
   H     68.73000000    29.82000000    15.91000000
   H     66.40000000    29.94000000    15.34000000
   H     65.88000000    29.28000000    16.95000000
   H     66.74000000    27.15000000    16.32000000
   H     67.67000000    27.78000000    15.00000000
   H     65.36000000    28.38000000    13.93000000
   H     64.66000000    27.34000000    15.29000000
   H     66.61000000    26.73000000    13.01000000
   H     65.01000000    26.23000000    12.99000000
   H     66.36000000    24.48000000    13.86000000
   H     67.14000000    25.44000000    14.92000000
   H     65.57000000    24.91000000    15.16000000
   N     67.46000000    31.84000000    18.09000000
   C     67.54000000    33.27000000    18.32000000
   C     68.06000000    33.60000000    19.72000000
   O     67.67000000    32.97000000    20.70000000
   C     66.14000000    33.88000000    18.18000000
   C     66.01000000    35.38000000    18.36000000
   O     64.98000000    35.90000000    18.85000000
   O     66.93000000    36.10000000    17.91000000
   H     67.37000000    31.24000000    18.90000000
   H     68.31000000    33.68000000    17.67000000
   H     65.40000000    33.43000000    18.84000000
   H     65.79000000    33.55000000    17.20000000
   N     68.82000000    34.68000000    19.89000000
   C     69.22000000    35.17000000    21.19000000
   C     68.37000000    36.31000000    21.71000000
   O     67.47000000    36.81000000    21.04000000
   H     69.18000000    35.02000000    19.01000000
   H     70.18000000    35.62000000    20.94000000
   H     69.29000000    34.36000000    21.92000000
   N     68.61000000    36.65000000    22.98000000
   C     67.72000000    37.52000000    23.73000000
   C     68.30000000    38.80000000    24.31000000
   O     67.60000000    39.55000000    24.99000000
   C     66.84000000    36.73000000    24.69000000
   C     66.02000000    35.65000000    23.99000000
   N     65.21000000    36.05000000    23.01000000
   O     66.05000000    34.49000000    24.39000000
   H     69.55000000    36.53000000    23.33000000
   H     67.03000000    37.96000000    23.02000000
   H     66.19000000    37.42000000    25.23000000
   H     67.48000000    36.28000000    25.44000000
   H     65.21000000    37.04000000    22.78000000
   H     64.54000000    35.44000000    22.58000000
   N     69.57000000    39.11000000    24.06000000
   C     70.37000000    40.20000000    24.58000000
   C     70.08000000    40.61000000    26.02000000
   O     69.85000000    39.77000000    26.88000000
   H     70.09000000    38.42000000    23.52000000
   H     70.13000000    41.08000000    23.98000000
   H     71.44000000    40.08000000    24.42000000
   N     69.95000000    41.91000000    26.29000000
   C     69.47000000    42.47000000    27.54000000
   C     68.07000000    42.06000000    27.98000000
   O     67.68000000    42.29000000    29.12000000
   C     70.52000000    42.28000000    28.63000000
   C     71.92000000    42.53000000    28.13000000
   C     72.79000000    41.45000000    27.94000000
   C     72.31000000    43.84000000    27.86000000
   C     74.05000000    41.71000000    27.39000000
   C     73.60000000    44.12000000    27.40000000
   C     74.46000000    43.03000000    27.12000000
   O     75.75000000    43.28000000    26.76000000
   H     69.96000000    42.56000000    25.52000000
   H     69.44000000    43.55000000    27.37000000
   H     70.41000000    41.27000000    29.02000000
   H     70.38000000    42.93000000    29.50000000
   H     72.49000000    40.42000000    28.09000000
   H     71.61000000    44.65000000    28.01000000
   H     74.77000000    40.94000000    27.17000000
   H     73.92000000    45.14000000    27.29000000
   H     76.01000000    44.16000000    27.03000000
   N     67.38000000    41.30000000    27.12000000
   C     66.03000000    40.78000000    27.14000000
   C     64.96000000    41.85000000    27.20000000
   O     64.07000000    41.82000000    26.36000000
   C     65.89000000    39.74000000    28.26000000
   C     66.63000000    38.45000000    27.92000000
   C     64.43000000    39.42000000    28.55000000
   C     66.95000000    37.56000000    29.12000000
   H     67.77000000    41.15000000    26.20000000
   H     65.91000000    40.22000000    26.21000000
   H     66.28000000    40.21000000    29.16000000
   H     67.58000000    38.62000000    27.42000000
   H     66.05000000    37.91000000    27.17000000
   H     63.81000000    39.43000000    27.66000000
   H     64.37000000    38.39000000    28.91000000
   H     64.10000000    40.16000000    29.29000000
   H     66.00000000    37.20000000    29.53000000
   H     67.49000000    36.66000000    28.82000000
   H     67.57000000    38.13000000    29.80000000
   N     65.01000000    42.81000000    28.13000000
   C     64.29000000    44.07000000    28.06000000
   C     62.78000000    43.98000000    28.19000000
   O     62.08000000    44.92000000    27.83000000
   C     64.79000000    45.04000000    29.13000000
   O     66.20000000    44.97000000    29.27000000
   H     65.77000000    42.80000000    28.80000000
   H     64.39000000    44.55000000    27.09000000
   H     64.28000000    44.68000000    30.02000000
   H     64.49000000    46.08000000    29.07000000
   H     66.58000000    45.00000000    28.38000000
   N     62.24000000    42.82000000    28.59000000
   C     60.85000000    42.45000000    28.49000000
   C     60.13000000    42.68000000    27.17000000
   O     58.91000000    42.83000000    27.21000000
   C     60.17000000    43.08000000    29.70000000
   H     62.85000000    42.21000000    29.13000000
   H     60.77000000    41.36000000    28.56000000
   H     60.22000000    44.16000000    29.59000000
   H     59.13000000    42.73000000    29.76000000
   H     60.68000000    42.80000000    30.62000000
   N     60.86000000    42.69000000    26.05000000
   C     60.51000000    42.97000000    24.67000000
   C     60.62000000    41.73000000    23.80000000
   O     61.06000000    40.70000000    24.30000000
   C     61.46000000    44.09000000    24.24000000
   H     61.83000000    42.43000000    26.15000000
   H     59.48000000    43.28000000    24.50000000
   H     61.14000000    44.57000000    23.32000000
   H     61.46000000    44.86000000    25.02000000
   H     62.46000000    43.67000000    24.17000000
   N     60.24000000    41.70000000    22.52000000
   C     60.10000000    40.61000000    21.57000000
   C     59.17000000    39.47000000    21.98000000
   O     59.22000000    38.39000000    21.40000000
   C     61.53000000    40.24000000    21.22000000
   C     61.75000000    39.63000000    19.83000000
   C     63.18000000    39.14000000    19.64000000
   O     63.75000000    38.26000000    20.32000000
   O     63.92000000    39.68000000    18.79000000
   H     59.89000000    42.55000000    22.11000000
   H     59.67000000    40.99000000    20.64000000
   H     61.98000000    39.61000000    21.98000000
   H     62.12000000    41.15000000    21.32000000
   H     61.56000000    40.46000000    19.16000000
   H     61.03000000    38.84000000    19.63000000
   N     58.37000000    39.62000000    23.04000000
   C     57.66000000    38.62000000    23.80000000
   H     56.67800000    38.45700000    23.35600000
   H     58.22300000    37.68700000    23.78900000
   H     57.54100000    38.96100000    24.82800000
   H     58.46000000    40.52000000    23.51000000
  Ca     66.07000000    38.15000000    19.15000000
   O     65.59000000    38.32000000    16.64000000
   H     65.60000000    37.80000000    15.84000000
   H     65.46000000    39.22000000    16.34000000

Ca 1.70



