%chk=Ng-295_loop3_41.0.chk
%nprocshared=48
%mem=10GB
%nosave
#b3lyp/svp scf=(tight,noincore) Test 
#IOP(5/87=12) Density=Current Pop=(MK,readradii) iop(6/33=2) iop(6/42=6)

Ng-295_loop3_41.0 

   0   1
   C      9.37500000    76.16500000    68.26000000
   C      8.60500000    75.05500000    67.57000000
   O      7.37500000    75.08500000    67.55000000
   H     10.29700000    76.36200000    67.71300000
   H      8.76700000    77.06900000    68.28300000
   H      9.61600000    75.86200000    69.27900000
   N      9.23500000    74.00500000    67.05000000
   C      8.49500000    72.97500000    66.35000000
   C      7.96500000    71.85500000    67.24000000
   O      8.63500000    70.88500000    67.57000000
   C      9.40500000    72.56500000    65.19000000
   C      8.63500000    71.98500000    64.01000000
   O      7.99500000    72.78500000    63.28000000
   O      8.46500000    70.75500000    63.98000000
   H     10.21500000    73.99500000    66.81000000
   H      7.64500000    73.37500000    65.80000000
   H     10.18500000    71.84500000    65.42000000
   H      9.99500000    73.43500000    64.90000000
   N      6.65500000    71.97500000    67.50000000
   C      5.91500000    71.29500000    68.54000000
   C      5.53500000    69.85500000    68.22000000
   O      5.36500000    69.11500000    69.19000000
   C      4.67500000    72.07500000    68.97000000
   C      5.07500000    73.34500000    69.72000000
   C      3.89500000    74.23500000    70.12000000
   C      4.42500000    75.50500000    70.78000000
   N      5.15500000    75.24500000    72.03000000
   H      6.10500000    72.58500000    66.92000000
   H      6.54500000    71.25500000    69.43000000
   H      4.02500000    71.50500000    69.63000000
   H      4.09500000    72.37500000    68.10000000
   H      5.71500000    73.89500000    69.03000000
   H      5.59500000    73.06500000    70.64000000
   H      3.18500000    73.64500000    70.70000000
   H      3.38500000    74.55500000    69.21000000
   H      3.57500000    76.09500000    71.14000000
   H      4.99500000    76.14500000    70.11000000
   H      4.49500000    74.79500000    72.64000000
   H      5.96500000    74.63500000    72.04000000
   H      5.29500000    76.15500000    72.45000000
   N      5.52500000    69.43500000    66.95000000
   C      5.34500000    68.04500000    66.61000000
   C      6.65500000    67.38500000    66.20000000
   O      6.66500000    66.20500000    65.88000000
   C      4.16500000    67.96500000    65.65000000
   C      4.43500000    68.30500000    64.19000000
   O      3.61500000    68.14500000    63.26000000
   O      5.52500000    68.87500000    63.97000000
   H      5.41500000    70.15500000    66.25000000
   H      5.04500000    67.46500000    67.48000000
   H      3.42500000    68.65500000    66.06000000
   H      3.74500000    66.95500000    65.68000000
   N      7.82500000    68.03500000    66.27000000
   C      9.09500000    67.48500000    65.86000000
   C      9.20500000    67.05500000    64.40000000
   O     10.29500000    66.82500000    63.89000000
   H      7.91500000    69.00500000    66.53000000
   H      9.35500000    66.64500000    66.51000000
   H      9.83500000    68.28500000    65.96000000
   N      8.12500000    67.15500000    63.63000000
   C      7.91500000    66.77500000    62.24000000
   C      8.30500000    67.90500000    61.30000000
   O      7.97500000    69.07500000    61.49000000
   C      6.49500000    66.26500000    62.04000000
   C      6.47500000    65.28500000    60.88000000
   N      6.57500000    63.95500000    61.01000000
   O      6.29500000    65.66500000    59.73000000
   H      7.24500000    67.39500000    64.06000000
   H      8.57500000    65.91500000    62.08000000
   H      5.81500000    67.08500000    61.80000000
   H      6.12500000    65.73500000    62.92000000
   H      6.61500000    63.48500000    61.90000000
   H      6.66500000    63.35500000    60.21000000
   N      9.08500000    67.52500000    60.28000000
   C      9.79500000    68.54500000    59.54000000
   C     10.28500000    68.10500000    58.17000000
   O     10.82500000    68.89500000    57.40000000
   H      9.23500000    66.53500000    60.16000000
   H     10.67500000    68.86500000    60.11000000
   H      9.18500000    69.44500000    59.54000000
   N     10.09500000    66.83500000    57.81000000
   C     10.40500000    66.33500000    56.48000000
   C      9.43500000    66.81500000    55.42000000
   O      8.21500000    66.64500000    55.47000000
   C     10.38500000    64.81500000    56.58000000
   C     11.06500000    64.13500000    55.41000000
   C     10.27500000    63.91500000    54.28000000
   C     12.44500000    63.92500000    55.39000000
   C     10.83500000    63.32500000    53.14000000
   C     12.99500000    63.33500000    54.24000000
   C     12.21500000    63.04500000    53.11000000
   O     12.81500000    62.50500000    52.00000000
   H      9.67500000    66.16500000    58.44000000
   H     11.43500000    66.59500000    56.21000000
   H      9.37500000    64.44500000    56.76000000
   H     10.99500000    64.52500000    57.43000000
   H      9.21500000    64.07500000    54.42000000
   H     13.00500000    64.25500000    56.25000000
   H     10.19500000    63.11500000    52.29000000
   H     14.02500000    63.03500000    54.21000000
   H     13.77500000    62.44500000    52.06000000
   N     10.06500000    67.38500000    54.39000000
   C      9.46500000    67.98500000    53.21000000
   C      8.79500000    67.03500000    52.23000000
   O      8.31500000    65.96500000    52.61000000
   C      8.56500000    69.18500000    53.48000000
   C      9.20500000    70.26500000    54.34000000
   C      7.13500000    68.92500000    53.96000000
   C     10.45500000    70.87500000    53.73000000
   H     11.07500000    67.40500000    54.43000000
   H     10.32500000    68.20500000    52.58000000
   H      8.43500000    69.68500000    52.52000000
   H      9.43500000    69.79500000    55.30000000
   H      8.47500000    71.06500000    54.48000000
   H      7.17500000    68.76500000    55.04000000
   H      6.53500000    69.80500000    53.72000000
   H      6.68500000    68.09500000    53.42000000
   H     10.86500000    71.60500000    54.43000000
   H     11.23500000    70.11500000    53.72000000
   H     10.35500000    71.33500000    52.75000000
   N      8.69500000    67.40500000    50.95000000
   C      7.86500000    66.68500000    50.01000000
   C      8.20500000    66.77500000    48.53000000
   O      7.46500000    66.26500000    47.69000000
   C      6.38500000    66.98500000    50.23000000
   O      6.06500000    68.34500000    50.07000000
   H      8.94500000    68.34500000    50.67000000
   H      8.05500000    65.63500000    50.24000000
   H      6.06500000    66.74500000    51.25000000
   H      5.75500000    66.31500000    49.65000000
   H      5.85500000    68.76500000    49.23000000
   N      9.21500000    67.59500000    48.22000000
   C      9.84500000    67.68500000    46.92000000
   C      8.80500000    67.91500000    45.82000000
   O      8.59500000    67.14500000    44.89000000
   C     10.72500000    66.47500000    46.65000000
   H      9.59500000    68.14500000    48.97000000
   H     10.49500000    68.55500000    47.01000000
   H     10.15500000    65.54500000    46.63000000
   H     11.04500000    66.56500000    45.61000000
   H     11.55500000    66.44500000    47.36000000
   N      8.14500000    69.07500000    45.79000000
   C      8.13500000    70.18500000    46.71000000
   C      8.34500000    71.51500000    46.00000000
   O      8.09500000    71.65500000    44.81000000
   C      6.80500000    70.15500000    47.46000000
   H      7.79500000    69.28500000    44.87000000
   H      9.00500000    70.06500000    47.36000000
   H      6.87500000    70.49500000    48.49000000
   H      6.10500000    70.84500000    46.98000000
   H      6.29500000    69.19500000    47.58000000
   N      8.61500000    72.63500000    46.69000000
   C      8.99500000    72.73500000    48.08000000
   C     10.48500000    73.00500000    48.24000000
   O     11.10500000    72.71500000    49.26000000
   C      8.09500000    73.71500000    48.83000000
   C      7.81500000    73.31500000    50.28000000
   C      6.95500000    74.39500000    50.92000000
   O      7.52500000    75.31500000    51.55000000
   O      5.72500000    74.41500000    50.72000000
   H      8.66500000    73.50500000    46.19000000
   H      8.80500000    71.76500000    48.55000000
   H      7.14500000    73.74500000    48.29000000
   H      8.64500000    74.65500000    48.89000000
   H      8.80500000    73.20500000    50.70000000
   H      7.22500000    72.39500000    50.31000000
   N     11.11500000    73.69500000    47.29000000
   C     12.52500000    74.01500000    47.38000000
   H     13.07300000    73.45700000    46.62100000
   H     12.66700000    75.08400000    47.21800000
   H     12.89700000    73.74400000    48.36800000
   H     10.57500000    73.96500000    46.48000000
  Ca      6.28000000    70.74000000    62.52000000
   O      5.44000000    70.37000000    59.96000000
   H      5.91000000    70.29000000    59.12000000
   H      4.55000000    70.07000000    59.76000000

Ca 1.70



