%chk=Ng-293_loop3_65.0.chk
%nprocshared=48
%mem=10GB
%nosave
#b3lyp/svp scf=(tight,noincore) Test 
#IOP(5/87=12) Density=Current Pop=(MK,readradii) iop(6/33=2) iop(6/42=6)

Ng-293_loop3_65.0 

   0   1
   C     40.39000000    74.67000000    71.61000000
   C     39.77000000    74.44000000    70.24000000
   O     40.26000000    74.97000000    69.24000000
   H     41.28200000    75.28800000    71.50500000
   H     39.67100000    75.17600000    72.25400000
   H     40.66300000    73.71100000    72.05200000
   N     38.63000000    73.75000000    70.15000000
   C     38.00000000    73.48000000    68.88000000
   C     37.45000000    72.06000000    68.76000000
   O     37.22000000    71.39000000    69.76000000
   C     36.90000000    74.51000000    68.66000000
   C     36.14000000    74.52000000    67.35000000
   O     35.03000000    75.10000000    67.32000000
   O     36.69000000    73.98000000    66.36000000
   H     38.32000000    73.19000000    70.94000000
   H     38.82000000    73.56000000    68.17000000
   H     37.20000000    75.55000000    68.81000000
   H     36.23000000    74.35000000    69.51000000
   N     37.34000000    71.53000000    67.54000000
   C     36.78000000    70.26000000    67.12000000
   C     35.33000000    70.11000000    67.55000000
   O     34.74000000    70.97000000    68.22000000
   C     37.60000000    69.02000000    67.46000000
   C     39.05000000    69.11000000    67.01000000
   C     39.23000000    69.47000000    65.53000000
   C     40.69000000    69.82000000    65.26000000
   N     40.84000000    69.92000000    63.80000000
   H     37.37000000    72.18000000    66.76000000
   H     36.76000000    70.33000000    66.04000000
   H     37.13000000    68.15000000    67.00000000
   H     37.57000000    68.80000000    68.53000000
   H     39.51000000    68.15000000    67.26000000
   H     39.50000000    69.91000000    67.59000000
   H     38.72000000    70.38000000    65.23000000
   H     38.97000000    68.61000000    64.91000000
   H     41.36000000    69.06000000    65.64000000
   H     41.00000000    70.74000000    65.76000000
   H     40.83000000    68.97000000    63.43000000
   H     40.09000000    70.38000000    63.30000000
   H     41.71000000    70.40000000    63.67000000
   N     34.73000000    69.03000000    67.05000000
   C     33.32000000    68.76000000    67.29000000
   C     33.13000000    67.87000000    68.51000000
   O     33.70000000    66.78000000    68.56000000
   C     32.68000000    68.26000000    65.99000000
   C     33.54000000    67.44000000    65.05000000
   O     34.48000000    66.74000000    65.48000000
   O     33.35000000    67.44000000    63.81000000
   H     35.22000000    68.50000000    66.35000000
   H     32.85000000    69.71000000    67.53000000
   H     32.37000000    69.20000000    65.52000000
   H     31.77000000    67.71000000    66.22000000
   N     32.23000000    68.26000000    69.42000000
   C     31.61000000    67.39000000    70.40000000
   C     30.95000000    68.20000000    71.51000000
   O     31.02000000    69.43000000    71.63000000
   H     31.88000000    69.20000000    69.46000000
   H     32.31000000    66.71000000    70.88000000
   H     30.83000000    66.76000000    69.98000000
   N     30.15000000    67.50000000    72.31000000
   C     29.28000000    68.03000000    73.34000000
   C     29.09000000    67.08000000    74.51000000
   O     29.14000000    67.49000000    75.67000000
   C     28.00000000    68.43000000    72.60000000
   C     26.97000000    69.02000000    73.55000000
   N     26.71000000    70.33000000    73.46000000
   O     26.37000000    68.32000000    74.36000000
   H     30.09000000    66.52000000    72.07000000
   H     29.67000000    68.97000000    73.73000000
   H     27.50000000    67.64000000    72.03000000
   H     28.19000000    69.22000000    71.87000000
   H     27.23000000    70.84000000    72.76000000
   H     25.85000000    70.68000000    73.86000000
   N     28.96000000    65.78000000    74.22000000
   C     28.94000000    64.67000000    75.14000000
   C     30.26000000    63.93000000    75.00000000
   O     31.23000000    64.44000000    74.43000000
   H     29.05000000    65.57000000    73.23000000
   H     28.16000000    63.95000000    74.87000000
   H     28.74000000    65.02000000    76.15000000
   N     30.42000000    62.81000000    75.72000000
   C     31.61000000    62.11000000    76.15000000
   C     32.68000000    61.66000000    75.17000000
   O     33.54000000    60.87000000    75.57000000
   C     32.19000000    62.85000000    77.36000000
   C     31.21000000    63.16000000    78.47000000
   C     31.15000000    64.47000000    78.95000000
   C     30.56000000    62.11000000    79.13000000
   C     30.48000000    64.66000000    80.17000000
   C     29.83000000    62.31000000    80.31000000
   C     29.81000000    63.61000000    80.84000000
   O     29.10000000    63.83000000    81.98000000
   H     29.62000000    62.43000000    76.20000000
   H     31.15000000    61.20000000    76.52000000
   H     32.62000000    63.78000000    76.97000000
   H     32.91000000    62.20000000    77.84000000
   H     31.68000000    65.29000000    78.51000000
   H     30.61000000    61.11000000    78.72000000
   H     30.46000000    65.63000000    80.65000000
   H     29.15000000    61.60000000    80.76000000
   H     28.61000000    63.09000000    82.36000000
   N     32.72000000    62.08000000    73.90000000
   C     33.80000000    61.93000000    72.94000000
   C     34.10000000    60.54000000    72.41000000
   O     34.48000000    60.52000000    71.24000000
   C     35.03000000    62.77000000    73.28000000
   C     34.69000000    64.21000000    73.62000000
   C     36.10000000    62.76000000    72.19000000
   C     33.90000000    65.07000000    72.63000000
   H     32.05000000    62.82000000    73.75000000
   H     33.41000000    62.31000000    71.99000000
   H     35.46000000    62.32000000    74.18000000
   H     35.61000000    64.78000000    73.73000000
   H     34.13000000    64.19000000    74.56000000
   H     37.01000000    63.32000000    72.40000000
   H     36.42000000    61.73000000    72.04000000
   H     35.61000000    63.12000000    71.29000000
   H     32.91000000    64.67000000    72.45000000
   H     33.82000000    66.01000000    73.17000000
   H     34.43000000    65.08000000    71.68000000
   N     34.03000000    59.49000000    73.23000000
   C     34.28000000    58.16000000    72.72000000
   C     35.72000000    57.90000000    72.30000000
   O     36.03000000    56.99000000    71.54000000
   C     34.01000000    57.10000000    73.79000000
   O     34.83000000    57.10000000    74.93000000
   H     33.86000000    59.61000000    74.22000000
   H     33.62000000    57.93000000    71.88000000
   H     34.18000000    56.10000000    73.42000000
   H     33.02000000    57.17000000    74.26000000
   H     34.42000000    56.59000000    75.63000000
   N     36.68000000    58.74000000    72.66000000
   C     38.07000000    58.67000000    72.24000000
   C     38.40000000    59.02000000    70.79000000
   O     39.55000000    58.79000000    70.42000000
   C     38.77000000    57.41000000    72.73000000
   H     36.41000000    59.52000000    73.25000000
   H     38.55000000    59.45000000    72.83000000
   H     38.52000000    57.40000000    73.78000000
   H     38.46000000    56.52000000    72.19000000
   H     39.83000000    57.65000000    72.58000000
   N     37.42000000    59.52000000    70.03000000
   C     37.65000000    60.15000000    68.74000000
   C     38.41000000    61.47000000    68.72000000
   O     38.16000000    62.38000000    69.50000000
   C     36.35000000    60.14000000    67.94000000
   H     36.54000000    59.69000000    70.49000000
   H     38.39000000    59.58000000    68.19000000
   H     35.86000000    59.17000000    67.96000000
   H     35.82000000    60.99000000    68.38000000
   H     36.64000000    60.49000000    66.94000000
   N     39.31000000    61.55000000    67.74000000
   C     39.99000000    62.79000000    67.39000000
   C     40.97000000    63.32000000    68.43000000
   O     41.45000000    64.43000000    68.26000000
   C     39.09000000    63.84000000    66.74000000
   C     38.78000000    63.63000000    65.26000000
   C     37.82000000    64.69000000    64.74000000
   O     38.04000000    65.91000000    64.62000000
   O     36.71000000    64.31000000    64.30000000
   H     39.52000000    60.73000000    67.19000000
   H     40.71000000    62.58000000    66.59000000
   H     39.45000000    64.87000000    66.79000000
   H     38.17000000    63.77000000    67.32000000
   H     38.42000000    62.64000000    65.01000000
   H     39.67000000    63.79000000    64.66000000
   N     41.40000000    62.49000000    69.38000000
   C     42.26000000    62.90000000    70.47000000
   H     43.14700000    63.38900000    70.06800000
   H     41.72300000    63.59600000    71.11500000
   H     42.55900000    62.02500000    71.04700000
   H     41.16000000    61.51000000    69.34000000
  Ca     35.91000000    66.51000000    63.31000000
   O     34.28000000    64.71000000    62.24000000
   H     34.08000000    64.92000000    61.33000000
   H     34.41000000    63.76000000    62.25000000

Ca 1.70



