%chk=Ng-293_loop3_22.0.chk
%nprocshared=48
%mem=10GB
%nosave
#b3lyp/svp scf=(tight,noincore) Test 
#IOP(5/87=12) Density=Current Pop=(MK,readradii) iop(6/33=2) iop(6/42=6)

Ng-293_loop3_22.0 

   0   1
   C     40.65000000    77.67000000    71.87000000
   C     41.06000000    77.54000000    70.41000000
   O     42.07000000    78.17000000    70.11000000
   H     39.61700000    77.34400000    71.98700000
   H     41.29900000    77.04800000    72.48700000
   H     40.73900000    78.71100000    72.18200000
   N     40.30000000    76.87000000    69.55000000
   C     40.47000000    76.97000000    68.11000000
   C     39.98000000    75.69000000    67.44000000
   O     39.33000000    74.85000000    68.06000000
   C     39.71000000    78.19000000    67.62000000
   C     39.98000000    78.64000000    66.19000000
   O     41.06000000    78.25000000    65.70000000
   O     39.27000000    79.52000000    65.66000000
   H     39.60000000    76.24000000    69.90000000
   H     41.50000000    77.17000000    67.80000000
   H     39.98000000    79.00000000    68.30000000
   H     38.64000000    78.06000000    67.75000000
   N     40.58000000    75.50000000    66.27000000
   C     40.38000000    74.36000000    65.41000000
   C     38.98000000    74.34000000    64.80000000
   O     38.45000000    75.40000000    64.48000000
   C     41.00000000    73.10000000    66.00000000
   C     42.52000000    73.12000000    66.17000000
   C     43.33000000    72.91000000    64.89000000
   C     44.82000000    73.21000000    65.03000000
   N     45.20000000    74.64000000    65.08000000
   H     41.12000000    76.28000000    65.90000000
   H     40.90000000    74.53000000    64.47000000
   H     40.72000000    72.23000000    65.40000000
   H     40.56000000    72.72000000    66.92000000
   H     42.74000000    72.35000000    66.91000000
   H     42.75000000    74.10000000    66.60000000
   H     43.00000000    73.51000000    64.05000000
   H     43.21000000    71.88000000    64.55000000
   H     45.35000000    72.74000000    64.20000000
   H     45.24000000    72.66000000    65.87000000
   H     44.65000000    75.23000000    65.69000000
   H     46.18000000    74.71000000    65.31000000
   H     45.11000000    75.01000000    64.14000000
   N     38.35000000    73.17000000    64.69000000
   C     37.15000000    73.01000000    63.90000000
   C     35.98000000    72.33000000    64.60000000
   O     34.93000000    72.20000000    63.97000000
   C     37.52000000    72.18000000    62.67000000
   C     38.27000000    70.89000000    62.98000000
   O     39.29000000    70.58000000    62.32000000
   O     37.77000000    69.95000000    63.64000000
   H     38.90000000    72.36000000    64.93000000
   H     36.77000000    73.98000000    63.57000000
   H     38.24000000    72.75000000    62.09000000
   H     36.68000000    71.95000000    62.02000000
   N     36.10000000    72.05000000    65.90000000
   C     35.16000000    71.46000000    66.83000000
   C     33.69000000    71.52000000    66.44000000
   O     32.95000000    72.35000000    66.95000000
   H     36.97000000    72.35000000    66.32000000
   H     35.32000000    71.94000000    67.80000000
   H     35.39000000    70.42000000    67.03000000
   N     33.27000000    70.55000000    65.62000000
   C     31.85000000    70.33000000    65.45000000
   C     31.64000000    68.82000000    65.40000000
   O     32.63000000    68.15000000    65.12000000
   C     31.39000000    71.00000000    64.16000000
   C     31.45000000    72.52000000    64.28000000
   N     32.37000000    73.26000000    63.65000000
   O     30.60000000    73.15000000    64.90000000
   H     33.88000000    69.80000000    65.35000000
   H     31.25000000    70.75000000    66.26000000
   H     30.34000000    70.75000000    64.01000000
   H     31.94000000    70.58000000    63.31000000
   H     33.19000000    72.69000000    63.51000000
   H     32.40000000    74.27000000    63.74000000
   N     30.40000000    68.33000000    65.45000000
   C     30.09000000    66.92000000    65.46000000
   C     30.06000000    66.37000000    66.88000000
   O     30.21000000    67.14000000    67.83000000
   H     29.65000000    68.96000000    65.72000000
   H     30.89000000    66.37000000    64.97000000
   H     29.16000000    66.76000000    64.90000000
   N     29.96000000    65.04000000    66.87000000
   C     30.03000000    64.14000000    68.01000000
   C     31.44000000    63.73000000    68.41000000
   O     31.73000000    63.26000000    69.50000000
   C     29.27000000    64.75000000    69.18000000
   C     28.42000000    63.82000000    70.01000000
   C     28.41000000    63.94000000    71.40000000
   C     27.70000000    62.80000000    69.37000000
   C     27.66000000    63.01000000    72.13000000
   C     26.91000000    61.91000000    70.11000000
   C     26.92000000    61.98000000    71.52000000
   O     26.15000000    61.18000000    72.31000000
   H     29.88000000    64.55000000    65.99000000
   H     29.54000000    63.25000000    67.62000000
   H     28.61000000    65.56000000    68.88000000
   H     29.95000000    65.24000000    69.88000000
   H     28.90000000    64.79000000    71.86000000
   H     27.67000000    62.63000000    68.30000000
   H     27.50000000    63.07000000    73.20000000
   H     26.29000000    61.17000000    69.62000000
   H     25.81000000    60.50000000    71.73000000
   N     32.42000000    64.13000000    67.59000000
   C     33.84000000    64.21000000    67.85000000
   C     34.42000000    62.81000000    67.68000000
   O     35.55000000    62.70000000    67.20000000
   C     34.22000000    64.92000000    69.15000000
   C     33.51000000    66.20000000    69.57000000
   C     35.71000000    65.21000000    69.16000000
   C     33.42000000    67.23000000    68.45000000
   H     32.06000000    64.58000000    66.76000000
   H     34.28000000    64.80000000    67.05000000
   H     34.03000000    64.27000000    70.01000000
   H     34.01000000    66.76000000    70.36000000
   H     32.47000000    66.01000000    69.86000000
   H     36.30000000    64.30000000    69.02000000
   H     35.89000000    65.99000000    68.41000000
   H     35.96000000    65.53000000    70.17000000
   H     32.99000000    66.80000000    67.54000000
   H     32.67000000    67.98000000    68.69000000
   H     34.39000000    67.66000000    68.20000000
   N     33.73000000    61.74000000    68.08000000
   C     34.17000000    60.36000000    67.95000000
   C     35.46000000    60.14000000    68.72000000
   O     36.28000000    59.34000000    68.28000000
   C     33.19000000    59.37000000    68.57000000
   O     33.05000000    59.60000000    69.96000000
   H     32.80000000    61.90000000    68.43000000
   H     34.23000000    60.05000000    66.90000000
   H     33.59000000    58.37000000    68.42000000
   H     32.22000000    59.41000000    68.09000000
   H     32.23000000    59.29000000    70.34000000
   N     35.74000000    60.94000000    69.75000000
   C     36.97000000    61.04000000    70.51000000
   C     38.23000000    61.31000000    69.70000000
   O     39.30000000    60.88000000    70.12000000
   C     37.09000000    59.92000000    71.55000000
   H     35.00000000    61.57000000    70.02000000
   H     36.90000000    61.98000000    71.06000000
   H     37.29000000    58.92000000    71.18000000
   H     37.90000000    60.21000000    72.21000000
   H     36.13000000    59.93000000    72.07000000
   N     38.13000000    61.91000000    68.51000000
   C     39.25000000    62.11000000    67.61000000
   C     39.92000000    63.45000000    67.86000000
   O     39.38000000    64.35000000    68.50000000
   C     38.77000000    61.93000000    66.17000000
   H     37.20000000    62.10000000    68.16000000
   H     39.96000000    61.28000000    67.68000000
   H     38.14000000    62.79000000    65.93000000
   H     39.61000000    61.83000000    65.49000000
   H     38.09000000    61.09000000    66.01000000
   N     41.15000000    63.67000000    67.41000000
   C     41.90000000    64.91000000    67.46000000
   C     42.26000000    65.44000000    68.84000000
   O     42.93000000    66.45000000    69.05000000
   C     41.19000000    65.94000000    66.59000000
   C     41.08000000    65.40000000    65.16000000
   C     40.39000000    66.36000000    64.20000000
   O     40.34000000    65.92000000    63.03000000
   O     39.82000000    67.41000000    64.58000000
   H     41.55000000    62.90000000    66.89000000
   H     42.84000000    64.62000000    66.98000000
   H     41.75000000    66.87000000    66.52000000
   H     40.22000000    66.20000000    67.01000000
   H     40.67000000    64.39000000    65.14000000
   H     42.07000000    65.33000000    64.72000000
   N     41.82000000    64.85000000    69.95000000
   C     42.01000000    65.29000000    71.32000000
   H     42.70700000    66.12800000    71.33900000
   H     41.05300000    65.60500000    71.73700000
   H     42.41300000    64.46900000    71.91300000
   H     41.19000000    64.09000000    69.76000000
  Ca     39.25000000    68.11000000    62.02000000
   O     37.40000000    66.52000000    62.78000000
   H     36.49000000    66.78000000    62.66000000
   H     37.36000000    65.74000000    63.33000000

Ca 1.70



