%chk=Ng-293_loop3_26.0.chk
%nprocshared=48
%mem=10GB
%nosave
#b3lyp/svp scf=(tight,noincore) Test 
#IOP(5/87=12) Density=Current Pop=(MK,readradii) iop(6/33=2) iop(6/42=6)

Ng-293_loop3_26.0 

   0   1
   C     41.14000000    78.03000000    71.33000000
   C     41.43000000    78.03000000    69.83000000
   O     42.27000000    78.80000000    69.38000000
   H     40.09600000    77.76500000    71.49800000
   H     41.78300000    77.30200000    71.82500000
   H     41.33200000    79.02200000    71.73800000
   N     40.65000000    77.36000000    68.98000000
   C     40.86000000    77.26000000    67.55000000
   C     40.18000000    76.00000000    67.02000000
   O     39.52000000    75.32000000    67.80000000
   C     40.15000000    78.45000000    66.91000000
   C     40.38000000    78.64000000    65.42000000
   O     41.41000000    78.22000000    64.85000000
   O     39.51000000    79.17000000    64.70000000
   H     40.00000000    76.66000000    69.31000000
   H     41.91000000    77.12000000    67.32000000
   H     40.47000000    79.38000000    67.38000000
   H     39.08000000    78.53000000    67.06000000
   N     40.61000000    75.55000000    65.84000000
   C     40.37000000    74.34000000    65.08000000
   C     38.90000000    74.03000000    64.79000000
   O     38.04000000    74.83000000    65.15000000
   C     41.05000000    73.10000000    65.65000000
   C     42.56000000    73.19000000    65.86000000
   C     43.40000000    73.16000000    64.59000000
   C     44.87000000    73.33000000    64.93000000
   N     45.14000000    74.65000000    65.50000000
   H     41.24000000    76.23000000    65.43000000
   H     40.83000000    74.60000000    64.12000000
   H     40.86000000    72.15000000    65.15000000
   H     40.57000000    72.90000000    66.60000000
   H     42.74000000    72.24000000    66.38000000
   H     42.76000000    74.12000000    66.38000000
   H     43.02000000    73.89000000    63.88000000
   H     43.22000000    72.13000000    64.26000000
   H     45.41000000    73.30000000    63.98000000
   H     45.19000000    72.55000000    65.63000000
   H     44.77000000    74.72000000    66.44000000
   H     46.10000000    74.93000000    65.63000000
   H     44.75000000    75.38000000    64.92000000
   N     38.68000000    72.97000000    64.02000000
   C     37.37000000    72.64000000    63.50000000
   C     36.52000000    71.99000000    64.58000000
   O     36.44000000    70.77000000    64.75000000
   C     37.41000000    71.82000000    62.21000000
   C     38.58000000    70.87000000    62.04000000
   O     39.41000000    70.95000000    61.11000000
   O     38.78000000    69.96000000    62.87000000
   H     39.49000000    72.46000000    63.70000000
   H     36.82000000    73.55000000    63.27000000
   H     37.20000000    72.48000000    61.36000000
   H     36.48000000    71.27000000    62.33000000
   N     36.05000000    72.86000000    65.47000000
   C     35.20000000    72.61000000    66.62000000
   C     33.70000000    72.82000000    66.47000000
   O     33.08000000    73.54000000    67.25000000
   H     36.25000000    73.85000000    65.38000000
   H     35.46000000    73.37000000    67.36000000
   H     35.43000000    71.63000000    67.02000000
   N     33.18000000    72.09000000    65.48000000
   C     31.78000000    71.78000000    65.24000000
   C     31.54000000    70.27000000    65.15000000
   O     32.47000000    69.59000000    64.72000000
   C     31.35000000    72.59000000    64.03000000
   C     31.31000000    74.08000000    64.31000000
   N     32.41000000    74.81000000    64.13000000
   O     30.29000000    74.58000000    64.78000000
   H     33.90000000    71.70000000    64.89000000
   H     31.15000000    72.03000000    66.09000000
   H     30.37000000    72.30000000    63.65000000
   H     31.99000000    72.31000000    63.19000000
   H     33.19000000    74.31000000    63.73000000
   H     32.45000000    75.80000000    64.31000000
   N     30.42000000    69.70000000    65.58000000
   C     30.13000000    68.28000000    65.60000000
   C     30.86000000    67.58000000    66.74000000
   O     31.67000000    68.12000000    67.48000000
   H     29.67000000    70.23000000    66.01000000
   H     30.46000000    67.79000000    64.68000000
   H     29.08000000    68.04000000    65.73000000
   N     30.56000000    66.28000000    66.80000000
   C     30.58000000    65.36000000    67.92000000
   C     31.90000000    65.12000000    68.64000000
   O     31.97000000    64.56000000    69.73000000
   C     29.40000000    65.68000000    68.84000000
   C     28.74000000    64.66000000    69.74000000
   C     28.22000000    65.07000000    70.97000000
   C     28.48000000    63.41000000    69.17000000
   C     27.61000000    64.09000000    71.76000000
   C     27.81000000    62.46000000    69.95000000
   C     27.45000000    62.77000000    71.28000000
   O     26.55000000    62.00000000    71.94000000
   H     30.12000000    65.94000000    65.96000000
   H     30.41000000    64.39000000    67.46000000
   H     28.58000000    66.11000000    68.26000000
   H     29.87000000    66.41000000    69.50000000
   H     28.39000000    66.08000000    71.31000000
   H     28.67000000    63.19000000    68.13000000
   H     27.11000000    64.37000000    72.68000000
   H     27.49000000    61.50000000    69.57000000
   H     26.59000000    61.08000000    71.66000000
   N     32.96000000    65.56000000    67.95000000
   C     34.35000000    65.26000000    68.21000000
   C     34.83000000    63.82000000    68.19000000
   O     35.90000000    63.52000000    67.67000000
   C     34.84000000    65.96000000    69.48000000
   C     34.48000000    67.43000000    69.67000000
   C     36.34000000    65.76000000    69.64000000
   C     35.03000000    68.39000000    68.62000000
   H     32.76000000    65.91000000    67.02000000
   H     34.84000000    65.72000000    67.35000000
   H     34.42000000    65.44000000    70.34000000
   H     34.89000000    67.76000000    70.63000000
   H     33.42000000    67.56000000    69.89000000
   H     36.62000000    64.71000000    69.72000000
   H     36.92000000    66.12000000    68.78000000
   H     36.59000000    66.29000000    70.55000000
   H     34.44000000    68.15000000    67.73000000
   H     34.73000000    69.39000000    68.91000000
   H     36.10000000    68.26000000    68.47000000
   N     34.10000000    62.89000000    68.82000000
   C     34.31000000    61.46000000    68.69000000
   C     35.62000000    60.98000000    69.29000000
   O     36.19000000    60.02000000    68.77000000
   C     33.10000000    60.71000000    69.24000000
   O     32.83000000    61.05000000    70.58000000
   H     33.26000000    63.29000000    69.22000000
   H     34.43000000    61.27000000    67.62000000
   H     33.24000000    59.63000000    69.17000000
   H     32.17000000    60.90000000    68.69000000
   H     31.88000000    60.96000000    70.66000000
   N     36.20000000    61.66000000    70.27000000
   C     37.58000000    61.59000000    70.73000000
   C     38.69000000    61.85000000    69.73000000
   O     39.85000000    61.57000000    70.03000000
   C     37.72000000    60.28000000    71.50000000
   H     35.66000000    62.42000000    70.66000000
   H     37.60000000    62.41000000    71.44000000
   H     37.60000000    59.41000000    70.86000000
   H     38.73000000    60.14000000    71.88000000
   H     36.95000000    60.26000000    72.27000000
   N     38.39000000    62.41000000    68.55000000
   C     39.42000000    62.78000000    67.61000000
   C     40.14000000    64.11000000    67.82000000
   O     39.55000000    65.03000000    68.38000000
   C     38.91000000    62.69000000    66.18000000
   H     37.42000000    62.57000000    68.30000000
   H     40.16000000    61.97000000    67.65000000
   H     37.93000000    63.12000000    65.93000000
   H     39.62000000    63.15000000    65.49000000
   H     38.73000000    61.63000000    65.97000000
   N     41.38000000    64.17000000    67.32000000
   C     42.32000000    65.27000000    67.31000000
   C     42.57000000    65.96000000    68.64000000
   O     42.99000000    67.11000000    68.67000000
   C     41.96000000    66.32000000    66.26000000
   C     41.89000000    65.70000000    64.87000000
   C     41.71000000    66.72000000    63.75000000
   O     41.62000000    66.32000000    62.57000000
   O     41.38000000    67.89000000    64.03000000
   H     41.78000000    63.27000000    67.10000000
   H     43.31000000    64.90000000    67.02000000
   H     42.79000000    67.02000000    66.31000000
   H     41.02000000    66.77000000    66.56000000
   H     41.07000000    64.98000000    64.78000000
   H     42.80000000    65.16000000    64.63000000
   N     42.56000000    65.19000000    69.73000000
   C     42.73000000    65.73000000    71.06000000
   H     43.40100000    66.58800000    71.02000000
   H     41.76300000    66.04500000    71.45100000
   H     43.15500000    64.96600000    71.71100000
   H     42.11000000    64.28000000    69.70000000
  Ca     40.19000000    68.33000000    61.48000000
   O     38.14000000    68.40000000    60.01000000
   H     37.90000000    68.93000000    59.25000000
   H     37.32000000    68.26000000    60.48000000

Ca 1.70



