%chk=Ng-295_loop3_15.0.chk
%nprocshared=48
%mem=10GB
%nosave
#b3lyp/svp scf=(tight,noincore) Test 
#IOP(5/87=12) Density=Current Pop=(MK,readradii) iop(6/33=2) iop(6/42=6)

Ng-295_loop3_15.0 

   0   1
   C      7.13500000    73.69500000    66.64000000
   C      6.33500000    72.84500000    65.67000000
   O      5.67500000    73.42500000    64.81000000
   H      8.04200000    74.04800000    66.15000000
   H      6.53600000    74.55000000    66.95400000
   H      7.40300000    73.09800000    67.51200000
   N      6.40500000    71.52500000    65.81000000
   C      5.76500000    70.47500000    65.04000000
   C      5.21500000    69.30500000    65.84000000
   O      6.01500000    68.61500000    66.47000000
   C      6.82500000    70.00500000    64.04000000
   C      6.31500000    69.04500000    62.97000000
   O      6.16500000    69.45500000    61.80000000
   O      6.09500000    67.84500000    63.23000000
   H      7.07500000    71.13500000    66.46000000
   H      4.95500000    70.99500000    64.54000000
   H      7.63500000    69.53500000    64.59000000
   H      7.18500000    70.91500000    63.54000000
   N      3.90500000    69.05500000    65.89000000
   C      3.20500000    68.33500000    66.93000000
   C      2.42500000    67.06500000    66.59000000
   O      1.77500000    66.49500000    67.46000000
   C      2.25500000    69.27500000    67.66000000
   C      2.85500000    70.49500000    68.35000000
   C      1.72500000    71.44500000    68.73000000
   C      2.17500000    72.62500000    69.58000000
   N      2.76500000    72.22500000    70.87000000
   H      3.38500000    69.64500000    65.26000000
   H      3.92500000    67.99500000    67.67000000
   H      1.55500000    68.76500000    68.32000000
   H      1.63500000    69.52500000    66.79000000
   H      3.51500000    70.95500000    67.61000000
   H      3.42500000    70.16500000    69.23000000
   H      0.94500000    70.90500000    69.26000000
   H      1.24500000    71.92500000    67.88000000
   H      1.36500000    73.34500000    69.73000000
   H      2.89500000    73.23500000    69.03000000
   H      2.99500000    72.99500000    71.47000000
   H      2.06500000    71.68500000    71.38000000
   H      3.59500000    71.67500000    70.74000000
   N      2.39500000    66.60500000    65.34000000
   C      1.53500000    65.60500000    64.74000000
   C      2.03500000    64.17500000    64.95000000
   O      1.33500000    63.24500000    64.55000000
   C      1.23500000    65.90500000    63.28000000
   C      2.40500000    65.95500000    62.30000000
   O      3.57500000    65.76500000    62.70000000
   O      2.20500000    66.14500000    61.08000000
   H      3.13500000    66.94500000    64.74000000
   H      0.53500000    65.69500000    65.16000000
   H      0.73500000    66.86500000    63.30000000
   H      0.50500000    65.14500000    62.99000000
   N      3.21500000    63.98500000    65.53000000
   C      3.83500000    62.67500000    65.59000000
   C      4.63500000    62.33500000    64.33000000
   O      5.18500000    61.24500000    64.34000000
   H      3.79500000    64.80500000    65.66000000
   H      3.14500000    61.86500000    65.82000000
   H      4.58500000    62.70500000    66.38000000
   N      4.81500000    63.09500000    63.25000000
   C      5.47500000    62.63500000    62.04000000
   C      6.44500000    63.61500000    61.40000000
   O      6.17500000    64.81500000    61.35000000
   C      4.34500000    62.22500000    61.11000000
   C      4.88500000    61.72500000    59.78000000
   N      4.45500000    62.44500000    58.74000000
   O      5.80500000    60.91500000    59.70000000
   H      4.42500000    64.02500000    63.28000000
   H      6.03500000    61.72500000    62.29000000
   H      3.80500000    63.16500000    60.95000000
   H      3.71500000    61.49500000    61.61000000
   H      3.55500000    62.86500000    58.89000000
   H      4.70500000    62.13500000    57.81000000
   N      7.54500000    63.10500000    60.84000000
   C      8.47500000    63.81500000    59.98000000
   C      8.55500000    63.41500000    58.51000000
   O      8.71500000    64.28500000    57.67000000
   H      7.59500000    62.11500000    61.03000000
   H      9.48500000    63.73500000    60.37000000
   H      8.16500000    64.85500000    59.89000000
   N      8.29500000    62.15500000    58.16000000
   C      8.30500000    61.68500000    56.79000000
   C      7.12500000    62.20500000    55.98000000
   O      5.99500000    62.30500000    56.45000000
   C      8.46500000    60.16500000    56.82000000
   C      8.77500000    59.67500000    55.42000000
   C      7.83500000    59.04500000    54.60000000
   C     10.06500000    59.84500000    54.91000000
   C      8.13500000    58.53500000    53.33000000
   C     10.43500000    59.36500000    53.64000000
   C      9.44500000    58.73500000    52.86000000
   O      9.72500000    58.21500000    51.63000000
   H      8.05500000    61.40500000    58.79000000
   H      9.26500000    62.00500000    56.38000000
   H      7.54500000    59.73500000    57.22000000
   H      9.19500000    59.70500000    57.47000000
   H      6.85500000    58.83500000    55.01000000
   H     10.88500000    60.33500000    55.41000000
   H      7.44500000    57.96500000    52.73000000
   H     11.38500000    59.61500000    53.21000000
   H     10.55500000    58.43500000    51.20000000
   N      7.41500000    62.47500000    54.70000000
   C      6.64500000    62.94500000    53.57000000
   C      5.51500000    62.06500000    53.07000000
   O      4.93500000    61.28500000    53.83000000
   C      6.09500000    64.36500000    53.72000000
   C      7.07500000    65.45500000    54.13000000
   C      4.83500000    64.53500000    54.56000000
   C      6.67500000    66.91500000    53.93000000
   H      8.39500000    62.39500000    54.50000000
   H      7.43500000    63.03500000    52.82000000
   H      5.75500000    64.64500000    52.72000000
   H      8.03500000    65.41500000    53.61000000
   H      7.25500000    65.27500000    55.19000000
   H      5.14500000    64.82500000    55.57000000
   H      4.31500000    65.37500000    54.12000000
   H      4.12500000    63.70500000    54.56000000
   H      6.45500000    67.01500000    52.87000000
   H      5.75500000    67.16500000    54.47000000
   H      7.48500000    67.52500000    54.33000000
   N      5.24500000    62.16500000    51.76000000
   C      4.25500000    61.36500000    51.06000000
   C      4.20500000    61.48500000    49.55000000
   O      3.39500000    60.80500000    48.91000000
   C      2.81500000    61.55500000    51.52000000
   O      2.46500000    62.91500000    51.62000000
   H      5.80500000    62.84500000    51.27000000
   H      4.44500000    60.30500000    51.21000000
   H      2.72500000    61.17500000    52.54000000
   H      2.04500000    61.06500000    50.93000000
   H      2.15500000    63.16500000    52.49000000
   N      5.03500000    62.35500000    48.96000000
   C      5.10500000    62.73500000    47.56000000
   C      3.77500000    62.87500000    46.83000000
   O      3.29500000    62.11500000    45.99000000
   C      6.14500000    61.83500000    46.90000000
   H      5.83500000    62.51500000    49.55000000
   H      5.49500000    63.74500000    47.57000000
   H      6.39500000    62.37500000    45.98000000
   H      7.05500000    61.90500000    47.50000000
   H      5.81500000    60.81500000    46.75000000
   N      2.99500000    63.93500000    47.05000000
   C      3.13500000    65.08500000    47.91000000
   C      3.39500000    66.30500000    47.03000000
   O      3.02500000    66.24500000    45.86000000
   C      1.79500000    65.22500000    48.62000000
   H      2.17500000    63.97500000    46.46000000
   H      3.96500000    64.92500000    48.60000000
   H      0.97500000    65.18500000    47.91000000
   H      1.62500000    64.38500000    49.30000000
   H      1.80500000    66.17500000    49.17000000
   N      3.99500000    67.37500000    47.56000000
   C      4.34500000    67.73500000    48.92000000
   C      5.78500000    68.24500000    48.94000000
   O      6.31500000    68.52500000    50.01000000
   C      3.35500000    68.75500000    49.47000000
   C      3.55500000    69.19500000    50.92000000
   C      2.30500000    69.99500000    51.28000000
   O      2.27500000    71.23500000    51.15000000
   O      1.29500000    69.43500000    51.75000000
   H      4.21500000    68.10500000    46.90000000
   H      4.32500000    66.84500000    49.54000000
   H      2.39500000    68.26500000    49.28000000
   H      3.58500000    69.64500000    48.89000000
   H      4.43500000    69.82500000    51.05000000
   H      3.67500000    68.33500000    51.58000000
   N      6.42500000    68.43500000    47.78000000
   C      7.67500000    69.12500000    47.54000000
   H      8.44800000    68.39900000    47.28900000
   H      7.55200000    69.82400000    46.71300000
   H      7.96800000    69.67100000    48.43700000
   H      5.92500000    68.04500000    46.99000000
  Ca      4.98000000    67.27000000    60.94000000
   O      3.23000000    68.95000000    61.97000000
   H      2.33000000    69.01000000    61.66000000
   H      3.43000000    69.82000000    62.30000000

Ca 1.70



