%chk=Ng-295_loop3_19.0.chk
%nprocshared=48
%mem=10GB
%nosave
#b3lyp/svp scf=(tight,noincore) Test 
#IOP(5/87=12) Density=Current Pop=(MK,readradii) iop(6/33=2) iop(6/42=6)

Ng-295_loop3_19.0 

   0   1
   C     86.92700000    74.29000000    57.87000000
   C     85.86700000    73.19000000    57.79000000
   O     84.75700000    73.25000000    58.31000000
   H     87.81800000    73.97600000    57.32600000
   H     86.53500000    75.20600000    57.42700000
   H     87.18500000    74.47200000    58.91300000
   N     86.27700000    72.06000000    57.23000000
   C     85.45700000    70.86000000    57.22000000
   C     85.43700000    70.20000000    58.59000000
   O     86.47700000    69.97000000    59.21000000
   C     85.82700000    69.93000000    56.06000000
   C     84.95700000    68.69000000    55.92000000
   O     84.88700000    67.81000000    56.81000000
   O     84.31700000    68.50000000    54.87000000
   H     87.27700000    71.94000000    57.09000000
   H     84.45700000    71.22000000    56.97000000
   H     86.84700000    69.58000000    56.19000000
   H     85.77700000    70.53000000    55.15000000
   N     84.23700000    69.87000000    59.08000000
   C     83.98700000    69.40000000    60.42000000
   C     84.65700000    68.06000000    60.73000000
   O     84.60700000    67.71000000    61.91000000
   C     82.47700000    69.28000000    60.55000000
   C     81.83700000    68.04000000    59.93000000
   C     80.31700000    68.08000000    60.03000000
   C     79.81700000    68.16000000    61.47000000
   N     78.40700000    67.77000000    61.56000000
   H     83.42700000    70.01000000    58.50000000
   H     84.48700000    70.07000000    61.13000000
   H     81.85700000    70.09000000    60.18000000
   H     82.18700000    69.11000000    61.59000000
   H     82.23700000    67.17000000    60.45000000
   H     82.09700000    68.06000000    58.87000000
   H     79.92700000    67.27000000    59.42000000
   H     80.03700000    69.04000000    59.58000000
   H     79.91700000    69.18000000    61.84000000
   H     80.36700000    67.39000000    62.02000000
   H     78.22700000    67.68000000    62.55000000
   H     77.81700000    68.51000000    61.21000000
   H     78.26700000    66.80000000    61.34000000
   N     85.38700000    67.41000000    59.82000000
   C     86.09700000    66.16000000    59.97000000
   C     87.33700000    66.23000000    59.10000000
   O     88.21700000    65.41000000    59.38000000
   C     85.26700000    64.92000000    59.65000000
   C     84.61700000    65.04000000    58.28000000
   O     83.39700000    65.30000000    58.17000000
   O     85.20700000    64.80000000    57.21000000
   H     85.19700000    67.79000000    58.91000000
   H     86.36700000    65.96000000    61.01000000
   H     84.45700000    64.73000000    60.35000000
   H     85.99700000    64.11000000    59.62000000
   N     87.44700000    67.10000000    58.09000000
   C     88.57700000    67.28000000    57.20000000
   C     88.65700000    66.34000000    56.00000000
   O     89.58700000    66.45000000    55.21000000
   H     86.67700000    67.73000000    57.95000000
   H     89.51700000    67.11000000    57.72000000
   H     88.47700000    68.32000000    56.89000000
   N     87.67700000    65.46000000    55.77000000
   C     87.65700000    64.54000000    54.64000000
   C     86.76700000    65.15000000    53.57000000
   O     85.70700000    65.63000000    53.97000000
   C     87.23700000    63.17000000    55.15000000
   C     87.38700000    61.99000000    54.20000000
   N     88.07700000    60.90000000    54.54000000
   O     86.78700000    61.97000000    53.12000000
   H     87.01700000    65.35000000    56.52000000
   H     88.62700000    64.50000000    54.15000000
   H     86.19700000    63.22000000    55.49000000
   H     87.91700000    62.95000000    55.97000000
   H     88.61700000    60.90000000    55.39000000
   H     88.21700000    60.10000000    53.94000000
   N     87.07700000    65.08000000    52.27000000
   C     86.34700000    65.81000000    51.25000000
   C     85.07700000    65.15000000    50.73000000
   O     84.33700000    65.69000000    49.91000000
   H     87.79700000    64.43000000    51.98000000
   H     86.98700000    65.94000000    50.38000000
   H     86.08700000    66.82000000    51.55000000
   N     84.84700000    63.89000000    51.11000000
   C     83.65700000    63.18000000    50.69000000
   C     82.29700000    63.71000000    51.14000000
   O     82.16700000    64.21000000    52.25000000
   C     83.77700000    61.73000000    51.16000000
   C     82.60700000    60.84000000    50.82000000
   C     81.72700000    60.48000000    51.85000000
   C     82.46700000    60.18000000    49.59000000
   C     80.61700000    59.65000000    51.65000000
   C     81.32700000    59.41000000    49.29000000
   C     80.44700000    59.13000000    50.35000000
   O     79.28700000    58.44000000    50.13000000
   H     85.52700000    63.42000000    51.68000000
   H     83.54700000    63.31000000    49.62000000
   H     84.03700000    61.79000000    52.22000000
   H     84.63700000    61.25000000    50.71000000
   H     81.94700000    60.87000000    52.83000000
   H     83.19700000    60.47000000    48.85000000
   H     79.86700000    59.43000000    52.39000000
   H     81.22700000    59.06000000    48.28000000
   H     79.02700000    58.45000000    49.21000000
   N     81.26700000    63.63000000    50.29000000
   C     79.90700000    64.00000000    50.63000000
   C     79.34700000    63.25000000    51.84000000
   O     79.89700000    63.08000000    52.93000000
   C     79.72700000    65.50000000    50.81000000
   C     78.37700000    65.94000000    51.37000000
   C     80.14700000    66.30000000    49.57000000
   C     78.03700000    67.43000000    51.47000000
   H     81.47700000    63.43000000    49.33000000
   H     79.32700000    63.65000000    49.78000000
   H     80.43700000    65.82000000    51.56000000
   H     78.25700000    65.44000000    52.33000000
   H     77.56700000    65.55000000    50.75000000
   H     80.53700000    67.29000000    49.81000000
   H     80.90700000    65.77000000    49.01000000
   H     79.30700000    66.42000000    48.89000000
   H     76.96700000    67.53000000    51.69000000
   H     78.50700000    67.93000000    52.31000000
   H     78.36700000    67.97000000    50.59000000
   N     78.16700000    62.70000000    51.55000000
   C     77.43700000    61.84000000    52.46000000
   C     76.34700000    61.06000000    51.73000000
   O     75.89700000    60.04000000    52.24000000
   C     76.70700000    62.78000000    53.41000000
   O     75.95700000    63.82000000    52.82000000
   H     77.61700000    63.06000000    50.79000000
   H     78.14700000    61.20000000    52.99000000
   H     77.47700000    63.18000000    54.07000000
   H     75.98700000    62.24000000    54.03000000
   H     75.78700000    64.48000000    53.48000000
   N     75.92700000    61.47000000    50.53000000
   C     75.00700000    60.78000000    49.65000000
   C     73.71700000    60.32000000    50.31000000
   O     73.30700000    59.16000000    50.27000000
   C     75.73700000    59.58000000    49.05000000
   H     76.12700000    62.42000000    50.26000000
   H     74.74700000    61.45000000    48.83000000
   H     75.74700000    58.67000000    49.65000000
   H     75.25700000    59.29000000    48.12000000
   H     76.78700000    59.78000000    48.83000000
   N     72.90700000    61.19000000    50.92000000
   C     73.07700000    62.63000000    51.00000000
   C     72.27700000    63.37000000    49.93000000
   O     71.30700000    62.83000000    49.40000000
   C     72.52700000    63.04000000    52.37000000
   H     72.01700000    60.77000000    51.17000000
   H     74.11700000    62.94000000    51.02000000
   H     72.79700000    64.08000000    52.52000000
   H     71.43700000    62.98000000    52.37000000
   H     72.95700000    62.36000000    53.10000000
   N     72.56700000    64.61000000    49.53000000
   C     73.72700000    65.41000000    49.82000000
   C     74.48700000    65.84000000    48.57000000
   O     75.71700000    65.82000000    48.54000000
   C     73.05700000    66.59000000    50.53000000
   C     74.05700000    67.45000000    51.31000000
   C     73.20700000    68.52000000    51.97000000
   O     72.58700000    69.33000000    51.24000000
   O     73.04700000    68.52000000    53.21000000
   H     71.98700000    64.92000000    48.76000000
   H     74.41700000    64.88000000    50.48000000
   H     72.43700000    66.20000000    51.33000000
   H     72.39700000    67.13000000    49.86000000
   H     74.69700000    67.99000000    50.61000000
   H     74.64700000    66.83000000    51.98000000
   N     73.67700000    66.20000000    47.58000000
   C     74.13700000    66.52000000    46.24000000
   H     75.16400000    66.17700000    46.11700000
   H     73.49900000    66.02400000    45.50800000
   H     74.09500000    67.59900000    46.08900000
   H     72.69700000    66.31000000    47.80000000
  Ca     83.50000000    65.97000000    55.49000000
   O     81.11000000    65.11000000    54.71000000
   H     80.71000000    64.36000000    55.15000000
   H     81.09000000    64.88000000    53.78000000

Ca 1.70



