%chk=Ng-293_loop3_45.0.chk
%nprocshared=48
%mem=10GB
%nosave
#b3lyp/svp scf=(tight,noincore) Test 
#IOP(5/87=12) Density=Current Pop=(MK,readradii) iop(6/33=2) iop(6/42=6)

Ng-293_loop3_45.0 

   0   1
   C     38.65000000    77.28000000    69.36000000
   C     39.35000000    77.21000000    68.02000000
   O     40.40000000    77.82000000    67.84000000
   H     37.64300000    76.87300000    69.26500000
   H     39.20900000    76.69900000    70.09300000
   H     38.59200000    78.31800000    69.68700000
   N     38.76000000    76.50000000    67.05000000
   C     39.14000000    76.26000000    65.67000000
   C     38.78000000    74.84000000    65.25000000
   O     38.10000000    74.19000000    66.04000000
   C     38.41000000    77.38000000    64.93000000
   C     38.66000000    77.54000000    63.44000000
   O     39.78000000    77.17000000    63.03000000
   O     37.71000000    77.99000000    62.77000000
   H     37.88000000    76.07000000    67.29000000
   H     40.22000000    76.35000000    65.52000000
   H     38.80000000    78.26000000    65.44000000
   H     37.35000000    77.14000000    65.06000000
   N     39.21000000    74.49000000    64.03000000
   C     38.93000000    73.27000000    63.30000000
   C     37.47000000    72.98000000    62.95000000
   O     36.59000000    73.72000000    63.38000000
   C     39.66000000    72.09000000    63.94000000
   C     41.18000000    72.16000000    63.99000000
   C     41.87000000    71.94000000    62.65000000
   C     43.38000000    71.68000000    62.69000000
   N     44.15000000    72.76000000    63.32000000
   H     39.80000000    75.20000000    63.62000000
   H     39.43000000    73.34000000    62.34000000
   H     39.35000000    71.13000000    63.54000000
   H     39.32000000    71.96000000    64.97000000
   H     41.39000000    71.30000000    64.63000000
   H     41.48000000    73.14000000    64.36000000
   H     41.68000000    72.83000000    62.05000000
   H     41.46000000    71.06000000    62.16000000
   H     43.59000000    71.53000000    61.63000000
   H     43.56000000    70.73000000    63.19000000
   H     44.02000000    73.61000000    62.79000000
   H     43.94000000    72.91000000    64.29000000
   H     45.14000000    72.52000000    63.32000000
   N     37.27000000    71.97000000    62.11000000
   C     35.93000000    71.75000000    61.59000000
   C     35.01000000    71.24000000    62.68000000
   O     35.27000000    70.30000000    63.43000000
   C     35.98000000    70.76000000    60.43000000
   C     36.78000000    69.47000000    60.59000000
   O     37.75000000    69.36000000    61.37000000
   O     36.44000000    68.60000000    59.77000000
   H     38.03000000    71.34000000    61.89000000
   H     35.60000000    72.70000000    61.16000000
   H     36.34000000    71.31000000    59.56000000
   H     34.92000000    70.60000000    60.22000000
   N     33.87000000    71.92000000    62.80000000
   C     32.78000000    71.38000000    63.60000000
   C     31.81000000    70.54000000    62.78000000
   O     30.74000000    70.20000000    63.28000000
   H     33.82000000    72.77000000    62.26000000
   H     32.35000000    72.29000000    64.02000000
   H     33.15000000    70.71000000    64.37000000
   N     32.19000000    70.28000000    61.52000000
   C     31.40000000    69.43000000    60.66000000
   C     31.09000000    68.13000000    61.40000000
   O     32.03000000    67.56000000    61.94000000
   C     32.21000000    69.23000000    59.38000000
   C     32.18000000    70.45000000    58.47000000
   N     30.97000000    70.88000000    58.09000000
   O     33.16000000    71.00000000    57.98000000
   H     33.01000000    70.78000000    61.22000000
   H     30.39000000    69.81000000    60.51000000
   H     31.74000000    68.38000000    58.90000000
   H     33.24000000    68.98000000    59.63000000
   H     30.16000000    70.35000000    58.34000000
   H     30.90000000    71.78000000    57.63000000
   N     29.84000000    67.67000000    61.37000000
   C     29.53000000    66.27000000    61.60000000
   C     29.56000000    65.92000000    63.08000000
   O     29.56000000    66.82000000    63.92000000
   H     29.11000000    68.22000000    60.96000000
   H     30.26000000    65.64000000    61.08000000
   H     28.55000000    65.95000000    61.25000000
   N     29.52000000    64.64000000    63.46000000
   C     29.22000000    64.20000000    64.80000000
   C     30.29000000    64.49000000    65.84000000
   O     30.11000000    64.46000000    67.06000000
   C     27.81000000    64.68000000    65.13000000
   C     27.11000000    64.00000000    66.28000000
   C     27.17000000    64.57000000    67.56000000
   C     26.36000000    62.85000000    66.03000000
   C     26.57000000    63.93000000    68.65000000
   C     25.76000000    62.19000000    67.12000000
   C     25.92000000    62.70000000    68.42000000
   O     25.50000000    61.98000000    69.51000000
   H     29.54000000    63.91000000    62.76000000
   H     29.14000000    63.11000000    64.70000000
   H     27.18000000    64.52000000    64.25000000
   H     27.70000000    65.76000000    65.27000000
   H     27.63000000    65.54000000    67.63000000
   H     26.19000000    62.53000000    65.01000000
   H     26.82000000    64.25000000    69.65000000
   H     25.21000000    61.29000000    66.90000000
   H     24.79000000    61.36000000    69.34000000
   N     31.49000000    64.72000000    65.30000000
   C     32.83000000    64.56000000    65.80000000
   C     33.34000000    63.14000000    66.02000000
   O     34.54000000    62.90000000    65.86000000
   C     32.99000000    65.41000000    67.06000000
   C     32.39000000    66.81000000    67.03000000
   C     34.45000000    65.46000000    67.50000000
   C     33.07000000    67.73000000    66.02000000
   H     31.39000000    64.70000000    64.29000000
   H     33.51000000    64.96000000    65.04000000
   H     32.40000000    65.01000000    67.88000000
   H     32.42000000    67.28000000    68.01000000
   H     31.31000000    66.78000000    66.84000000
   H     34.84000000    64.47000000    67.74000000
   H     35.15000000    66.00000000    66.86000000
   H     34.51000000    65.82000000    68.52000000
   H     33.04000000    67.21000000    65.06000000
   H     32.53000000    68.67000000    66.10000000
   H     34.10000000    67.90000000    66.34000000
   N     32.58000000    62.15000000    66.49000000
   C     33.07000000    60.81000000    66.67000000
   C     34.29000000    60.56000000    67.55000000
   O     34.90000000    59.51000000    67.34000000
   C     31.99000000    59.89000000    67.23000000
   O     31.65000000    60.29000000    68.54000000
   H     31.57000000    62.19000000    66.43000000
   H     33.36000000    60.50000000    65.66000000
   H     32.26000000    58.84000000    67.31000000
   H     31.13000000    59.99000000    66.57000000
   H     31.21000000    59.56000000    68.99000000
   N     34.72000000    61.50000000    68.39000000
   C     35.94000000    61.58000000    69.17000000
   C     37.22000000    61.60000000    68.34000000
   O     38.31000000    61.20000000    68.76000000
   C     35.89000000    60.61000000    70.35000000
   H     34.16000000    62.35000000    68.38000000
   H     35.87000000    62.56000000    69.64000000
   H     36.67000000    60.95000000    71.03000000
   H     34.86000000    60.79000000    70.65000000
   H     36.07000000    59.57000000    70.06000000
   N     37.07000000    62.14000000    67.13000000
   C     38.11000000    62.21000000    66.13000000
   C     38.97000000    63.46000000    66.32000000
   O     38.42000000    64.52000000    66.59000000
   C     37.50000000    62.00000000    64.74000000
   H     36.14000000    62.41000000    66.84000000
   H     38.77000000    61.36000000    66.31000000
   H     36.97000000    62.85000000    64.32000000
   H     38.33000000    61.82000000    64.06000000
   H     36.79000000    61.19000000    64.62000000
   N     40.29000000    63.37000000    66.11000000
   C     41.22000000    64.47000000    66.01000000
   C     41.52000000    65.20000000    67.31000000
   O     42.17000000    66.24000000    67.22000000
   C     40.92000000    65.39000000    64.83000000
   C     40.88000000    64.68000000    63.48000000
   C     40.33000000    65.44000000    62.29000000
   O     40.45000000    66.68000000    62.13000000
   O     39.60000000    64.93000000    61.41000000
   H     40.72000000    62.47000000    65.98000000
   H     42.17000000    64.00000000    65.78000000
   H     41.66000000    66.19000000    64.85000000
   H     39.90000000    65.74000000    64.98000000
   H     40.16000000    63.86000000    63.52000000
   H     41.90000000    64.29000000    63.37000000
   N     41.08000000    64.71000000    68.48000000
   C     41.09000000    65.42000000    69.74000000
   H     40.72100000    66.43400000    69.58800000
   H     40.44800000    64.90400000    70.45400000
   H     42.10800000    65.45800000    70.12800000
   H     40.67000000    63.80000000    68.37000000
  Ca     38.83000000    67.19000000    60.22000000
   O     40.65000000    69.05000000    59.81000000
   H     40.41000000    69.97000000    59.89000000
   H     41.61000000    69.04000000    59.83000000

Ca 1.70



