%chk=Ng-295_loop3_25.0.chk
%nprocshared=48
%mem=10GB
%nosave
#b3lyp/svp scf=(tight,noincore) Test 
#IOP(5/87=12) Density=Current Pop=(MK,readradii) iop(6/33=2) iop(6/42=6)

Ng-295_loop3_25.0 

   0   1
   C     85.98500000    74.39500000    51.89000000
   C     85.44500000    73.06500000    52.39000000
   O     84.30500000    72.71500000    52.08000000
   H     86.97200000    74.24400000    51.45200000
   H     85.31100000    74.80100000    51.13500000
   H     86.06100000    75.09300000    52.72300000
   N     86.24500000    72.41500000    53.24000000
   C     85.98500000    71.16500000    53.92000000
   C     85.29500000    71.54500000    55.23000000
   O     85.84500000    72.11500000    56.17000000
   C     87.26500000    70.34500000    54.06000000
   C     87.04500000    68.91500000    54.50000000
   O     87.41500000    67.95500000    53.78000000
   O     86.40500000    68.70500000    55.56000000
   H     87.14500000    72.77500000    53.51000000
   H     85.23500000    70.64500000    53.32000000
   H     87.94500000    70.82500000    54.76000000
   H     87.74500000    70.34500000    53.08000000
   N     84.01500000    71.18500000    55.24000000
   C     83.12500000    71.52500000    56.33000000
   C     83.57500000    71.06500000    57.72000000
   O     83.07500000    71.58500000    58.72000000
   C     81.77500000    70.94500000    55.93000000
   C     81.76500000    69.41500000    56.01000000
   C     80.41500000    68.74500000    55.76000000
   C     80.52500000    67.32500000    55.22000000
   N     80.99500000    66.31500000    56.18000000
   H     83.57500000    70.73500000    54.44000000
   H     83.19500000    72.60500000    56.35000000
   H     81.56500000    71.16500000    54.88000000
   H     80.92500000    71.40500000    56.44000000
   H     82.09500000    69.20500000    57.02000000
   H     82.43500000    69.04500000    55.23000000
   H     79.84500000    69.25500000    54.99000000
   H     79.82500000    68.74500000    56.68000000
   H     81.23500000    67.38500000    54.41000000
   H     79.50500000    67.12500000    54.88000000
   H     80.88500000    65.39500000    55.78000000
   H     81.98500000    66.44500000    56.34000000
   H     80.57500000    66.31500000    57.10000000
   N     84.41500000    70.03500000    57.83000000
   C     84.63500000    69.29500000    59.05000000
   C     86.12500000    69.17500000    59.33000000
   O     86.44500000    68.67500000    60.41000000
   C     83.98500000    67.91500000    58.96000000
   C     84.40500000    67.24500000    57.66000000
   O     83.60500000    67.17500000    56.70000000
   O     85.51500000    66.68500000    57.53000000
   H     84.67500000    69.65500000    56.93000000
   H     84.16500000    69.82500000    59.88000000
   H     82.92500000    68.16500000    58.86000000
   H     84.28500000    67.31500000    59.82000000
   N     86.97500000    69.67500000    58.43000000
   C     88.41500000    69.70500000    58.34000000
   C     89.14500000    68.38500000    58.17000000
   O     90.36500000    68.37500000    58.35000000
   H     86.54500000    70.28500000    57.75000000
   H     88.83500000    70.18500000    59.23000000
   H     88.68500000    70.27500000    57.45000000
   N     88.50500000    67.28500000    57.79000000
   C     89.25500000    66.05500000    57.63000000
   C     89.10500000    65.46500000    56.23000000
   O     88.04500000    65.52500000    55.61000000
   C     88.82500000    65.13500000    58.76000000
   C     89.19500000    63.65500000    58.67000000
   N     88.21500000    62.75500000    58.53000000
   O     90.35500000    63.27500000    58.73000000
   H     87.50500000    67.31500000    57.63000000
   H     90.32500000    66.00500000    57.82000000
   H     87.74500000    65.16500000    58.85000000
   H     89.27500000    65.51500000    59.68000000
   H     87.26500000    63.03500000    58.74000000
   H     88.42500000    61.77500000    58.54000000
   N     90.08500000    64.71500000    55.72000000
   C     90.26500000    64.53500000    54.29000000
   C     89.56500000    63.32500000    53.69000000
   O     89.44500000    63.29500000    52.47000000
   H     90.89500000    64.49500000    56.28000000
   H     91.32500000    64.52500000    54.02000000
   H     89.81500000    65.37500000    53.77000000
   N     89.15500000    62.43500000    54.59000000
   C     88.41500000    61.21500000    54.29000000
   C     87.12500000    61.48500000    53.54000000
   O     86.35500000    62.36500000    53.94000000
   C     88.20500000    60.43500000    55.58000000
   C     87.61500000    59.06500000    55.38000000
   C     86.22500000    58.89500000    55.34000000
   C     88.47500000    57.98500000    55.15000000
   C     85.68500000    57.63500000    55.07000000
   C     87.93500000    56.70500000    54.98000000
   C     86.54500000    56.53500000    54.88000000
   O     86.04500000    55.28500000    54.70000000
   H     89.29500000    62.77500000    55.53000000
   H     89.04500000    60.57500000    53.67000000
   H     87.41500000    60.95500000    56.13000000
   H     89.20500000    60.36500000    56.01000000
   H     85.54500000    59.71500000    55.50000000
   H     89.53500000    58.17500000    55.02000000
   H     84.61500000    57.54500000    54.91000000
   H     88.62500000    55.90500000    54.73000000
   H     86.76500000    54.69500000    54.47000000
   N     86.92500000    60.78500000    52.42000000
   C     85.73500000    60.72500000    51.59000000
   C     84.59500000    60.00500000    52.29000000
   O     84.27500000    60.30500000    53.44000000
   C     85.35500000    62.05500000    50.95000000
   C     84.22500000    62.07500000    49.93000000
   C     86.54500000    62.74500000    50.31000000
   C     83.67500000    63.46500000    49.58000000
   H     87.66500000    60.12500000    52.29000000
   H     85.85500000    60.16500000    50.65000000
   H     85.06500000    62.72500000    51.76000000
   H     83.38500000    61.49500000    50.31000000
   H     84.58500000    61.54500000    49.05000000
   H     87.31500000    62.94500000    51.06000000
   H     86.93500000    62.10500000    49.52000000
   H     86.29500000    63.70500000    49.85000000
   H     82.82500000    63.34500000    48.92000000
   H     83.27500000    63.99500000    50.44000000
   H     84.44500000    64.14500000    49.21000000
   N     83.93500000    59.05500000    51.62000000
   C     82.65500000    58.58500000    52.09000000
   C     82.15500000    57.27500000    51.50000000
   O     81.22500000    56.78500000    52.15000000
   C     81.67500000    59.70500000    51.78000000
   O     81.56500000    59.81500000    50.37000000
   H     84.26500000    58.71500000    50.73000000
   H     82.76500000    58.49500000    53.18000000
   H     81.97500000    60.65500000    52.22000000
   H     80.71500000    59.42500000    52.22000000
   H     81.01500000    60.57500000    50.19000000
   N     82.81500000    56.70500000    50.50000000
   C     82.52500000    55.37500000    49.98000000
   C     81.06500000    55.03500000    49.72000000
   O     80.55500000    54.06500000    50.26000000
   C     83.27500000    54.25500000    50.69000000
   H     83.70500000    57.09500000    50.22000000
   H     82.87500000    55.37500000    48.95000000
   H     82.87500000    54.12500000    51.70000000
   H     83.06500000    53.32500000    50.16000000
   H     84.31500000    54.56500000    50.71000000
   N     80.28500000    55.79500000    48.95000000
   C     80.61500000    57.01500000    48.22000000
   C     80.66500000    56.77500000    46.72000000
   O     79.95500000    55.88500000    46.25000000
   C     79.53500000    57.94500000    48.75000000
   H     79.43500000    55.34500000    48.66000000
   H     81.59500000    57.39500000    48.48000000
   H     79.45500000    58.79500000    48.08000000
   H     78.55500000    57.46500000    48.80000000
   H     79.73500000    58.28500000    49.77000000
   N     81.43500000    57.53500000    45.93000000
   C     82.20500000    58.71500000    46.23000000
   C     83.59500000    58.71500000    45.61000000
   O     84.58500000    58.75500000    46.35000000
   C     81.48500000    59.97500000    45.74000000
   C     81.98500000    61.31500000    46.25000000
   C     81.21500000    62.54500000    45.79000000
   O     81.28500000    62.81500000    44.57000000
   O     80.49500000    63.14500000    46.62000000
   H     81.34500000    57.29500000    44.95000000
   H     82.34500000    58.80500000    47.31000000
   H     80.44500000    59.90500000    46.03000000
   H     81.50500000    59.90500000    44.65000000
   H     83.00500000    61.49500000    45.91000000
   H     81.98500000    61.30500000    47.34000000
   N     83.76500000    58.42500000    44.32000000
   C     85.01500000    58.47500000    43.60000000
   H     85.80100000    58.02500000    44.20600000
   H     84.91800000    57.92500000    42.66400000
   H     85.27100000    59.51300000    43.38700000
   H     82.92500000    58.15500000    43.82000000
  Ca     85.60000000    66.38000000    54.93000000
   O     86.50000000    64.82000000    52.99000000
   H     87.28000000    64.68000000    52.46000000
   H     86.20000000    63.93000000    53.20000000

Ca 1.70



