%chk=Ng-293_loop3_77.0.chk
%nprocshared=48
%mem=10GB
%nosave
#b3lyp/svp scf=(tight,noincore) Test 
#IOP(5/87=12) Density=Current Pop=(MK,readradii) iop(6/33=2) iop(6/42=6)

Ng-293_loop3_77.0 

   0   1
   C     40.77000000    86.54000000    76.76000000
   C     40.70000000    86.00000000    75.34000000
   O     41.63000000    85.32000000    74.91000000
   H     41.03600000    87.59700000    76.73400000
   H     39.80000000    86.42200000    77.24200000
   H     41.52500000    85.99000000    77.32200000
   N     39.63000000    86.20000000    74.56000000
   C     39.38000000    85.64000000    73.25000000
   C     38.67000000    84.30000000    73.40000000
   O     37.95000000    84.06000000    74.36000000
   C     38.51000000    86.62000000    72.46000000
   C     38.09000000    86.30000000    71.04000000
   O     38.60000000    85.34000000    70.41000000
   O     37.26000000    87.04000000    70.46000000
   H     39.05000000    86.99000000    74.80000000
   H     40.33000000    85.48000000    72.75000000
   H     39.22000000    87.43000000    72.33000000
   H     37.77000000    87.02000000    73.15000000
   N     38.73000000    83.41000000    72.40000000
   C     37.90000000    82.24000000    72.19000000
   C     36.42000000    82.57000000    72.11000000
   O     35.89000000    83.56000000    72.61000000
   C     38.24000000    81.13000000    73.19000000
   C     39.73000000    80.82000000    73.17000000
   C     40.31000000    80.33000000    71.84000000
   C     41.81000000    80.13000000    71.93000000
   N     42.25000000    79.33000000    70.76000000
   H     39.33000000    83.58000000    71.61000000
   H     38.08000000    81.91000000    71.17000000
   H     37.62000000    80.26000000    72.96000000
   H     37.94000000    81.29000000    74.23000000
   H     39.85000000    79.94000000    73.80000000
   H     40.44000000    81.52000000    73.61000000
   H     40.05000000    80.95000000    70.98000000
   H     39.81000000    79.38000000    71.67000000
   H     42.02000000    79.60000000    72.86000000
   H     42.46000000    81.00000000    71.86000000
   H     41.68000000    78.50000000    70.73000000
   H     42.26000000    79.93000000    69.95000000
   H     43.16000000    78.93000000    70.93000000
   N     35.67000000    81.76000000    71.36000000
   C     34.35000000    82.16000000    70.89000000
   C     33.20000000    82.06000000    71.88000000
   O     32.19000000    82.69000000    71.58000000
   C     34.04000000    81.37000000    69.62000000
   C     33.90000000    79.86000000    69.81000000
   O     33.98000000    79.22000000    70.88000000
   O     33.80000000    79.20000000    68.76000000
   H     36.20000000    81.03000000    70.92000000
   H     34.44000000    83.19000000    70.56000000
   H     34.91000000    81.53000000    68.98000000
   H     33.20000000    81.68000000    69.01000000
   N     33.30000000    81.31000000    72.98000000
   C     32.36000000    81.31000000    74.08000000
   C     30.96000000    80.83000000    73.76000000
   O     30.09000000    81.08000000    74.60000000
   H     34.17000000    80.87000000    73.23000000
   H     32.31000000    82.18000000    74.74000000
   H     32.83000000    80.60000000    74.76000000
   N     30.75000000    80.14000000    72.63000000
   C     29.40000000    79.75000000    72.28000000
   C     29.06000000    78.44000000    72.98000000
   O     29.83000000    77.50000000    73.11000000
   C     29.33000000    79.59000000    70.76000000
   C     27.94000000    79.36000000    70.18000000
   N     27.38000000    80.37000000    69.51000000
   O     27.31000000    78.32000000    70.31000000
   H     31.53000000    79.85000000    72.07000000
   H     28.67000000    80.51000000    72.56000000
   H     29.90000000    78.69000000    70.53000000
   H     29.80000000    80.42000000    70.25000000
   H     27.88000000    81.22000000    69.27000000
   H     26.61000000    80.14000000    68.89000000
   N     27.76000000    78.34000000    73.27000000
   C     27.21000000    77.10000000    73.78000000
   C     27.39000000    76.94000000    75.28000000
   O     28.07000000    77.71000000    75.95000000
   H     27.19000000    79.16000000    73.12000000
   H     27.56000000    76.23000000    73.24000000
   H     26.14000000    77.28000000    73.64000000
   N     26.77000000    75.93000000    75.90000000
   C     26.87000000    75.53000000    77.29000000
   C     28.23000000    75.34000000    77.94000000
   O     28.29000000    74.90000000    79.09000000
   C     26.07000000    76.61000000    78.01000000
   C     25.80000000    76.28000000    79.46000000
   C     26.20000000    77.10000000    80.53000000
   C     25.19000000    75.06000000    79.77000000
   C     25.92000000    76.74000000    81.85000000
   C     24.90000000    74.71000000    81.09000000
   C     25.39000000    75.47000000    82.17000000
   O     24.96000000    75.27000000    83.45000000
   H     26.10000000    75.32000000    75.45000000
   H     26.35000000    74.57000000    77.38000000
   H     25.10000000    76.81000000    77.56000000
   H     26.55000000    77.59000000    77.99000000
   H     26.77000000    77.99000000    80.32000000
   H     24.94000000    74.31000000    79.03000000
   H     26.23000000    77.38000000    82.66000000
   H     24.55000000    73.69000000    81.14000000
   H     24.23000000    74.65000000    83.50000000
   N     29.25000000    75.48000000    77.09000000
   C     30.67000000    75.20000000    77.16000000
   C     30.92000000    73.70000000    77.20000000
   O     31.69000000    73.21000000    76.37000000
   C     31.32000000    75.94000000    78.33000000
   C     31.16000000    77.45000000    78.41000000
   C     32.81000000    75.64000000    78.19000000
   C     31.47000000    78.24000000    77.14000000
   H     28.97000000    75.73000000    76.15000000
   H     31.07000000    75.59000000    76.23000000
   H     30.98000000    75.56000000    79.29000000
   H     31.85000000    77.76000000    79.21000000
   H     30.18000000    77.71000000    78.81000000
   H     33.42000000    76.29000000    78.81000000
   H     32.93000000    74.66000000    78.64000000
   H     33.16000000    75.62000000    77.15000000
   H     32.54000000    78.15000000    76.95000000
   H     30.89000000    77.82000000    76.33000000
   H     31.30000000    79.28000000    77.43000000
   N     30.37000000    72.98000000    78.18000000
   C     30.30000000    71.54000000    78.23000000
   C     31.63000000    70.82000000    78.42000000
   O     31.99000000    69.85000000    77.76000000
   C     29.45000000    71.14000000    79.43000000
   O     29.63000000    72.01000000    80.53000000
   H     29.78000000    73.41000000    78.88000000
   H     29.88000000    71.09000000    77.32000000
   H     29.64000000    70.07000000    79.57000000
   H     28.42000000    71.28000000    79.11000000
   H     28.75000000    72.07000000    80.91000000
   N     32.49000000    71.51000000    79.18000000
   C     33.87000000    71.19000000    79.46000000
   C     34.80000000    71.11000000    78.26000000
   O     35.77000000    70.35000000    78.27000000
   C     34.05000000    70.05000000    80.46000000
   H     32.10000000    72.31000000    79.65000000
   H     34.14000000    72.08000000    80.03000000
   H     33.83000000    69.06000000    80.08000000
   H     35.09000000    69.96000000    80.79000000
   H     33.41000000    70.26000000    81.32000000
   N     34.48000000    71.76000000    77.14000000
   C     35.29000000    71.75000000    75.94000000
   C     36.10000000    73.02000000    75.73000000
   O     35.78000000    74.09000000    76.25000000
   C     34.43000000    71.57000000    74.69000000
   H     33.63000000    72.31000000    77.08000000
   H     35.96000000    70.90000000    75.90000000
   H     35.02000000    71.53000000    73.77000000
   H     33.88000000    70.64000000    74.72000000
   H     33.76000000    72.42000000    74.63000000
   N     37.20000000    72.87000000    74.99000000
   C     38.22000000    73.88000000    74.83000000
   C     39.08000000    74.42000000    75.97000000
   O     39.93000000    75.30000000    75.87000000
   C     37.68000000    74.98000000    73.92000000
   C     37.17000000    74.51000000    72.56000000
   C     36.89000000    75.68000000    71.62000000
   O     35.79000000    76.24000000    71.78000000
   O     37.85000000    76.28000000    71.10000000
   H     37.42000000    71.91000000    74.74000000
   H     38.99000000    73.32000000    74.30000000
   H     38.51000000    75.67000000    73.75000000
   H     36.88000000    75.55000000    74.39000000
   H     36.22000000    74.00000000    72.71000000
   H     37.89000000    73.83000000    72.09000000
   N     38.93000000    73.79000000    77.14000000
   C     39.51000000    74.26000000    78.38000000
   H     40.40400000    74.84500000    78.16400000
   H     38.78700000    74.88300000    78.90700000
   H     39.77700000    73.40700000    79.00300000
   H     38.10000000    73.23000000    77.25000000
  Ca     33.88000000    76.67000000    69.97000000
   O     31.52000000    76.35000000    68.84000000
   H     30.75000000    76.05000000    69.34000000
   H     31.28000000    76.20000000    67.93000000

Ca 1.70



