%chk=Ng-293_loop3_72.0.chk
%nprocshared=48
%mem=10GB
%nosave
#b3lyp/svp scf=(tight,noincore) Test 
#IOP(5/87=12) Density=Current Pop=(MK,readradii) iop(6/33=2) iop(6/42=6)

Ng-293_loop3_72.0 

   0   1
   C     41.18000000    77.55000000    71.53000000
   C     41.42000000    77.50000000    70.03000000
   O     42.30000000    78.23000000    69.58000000
   H     40.13100000    77.34000000    71.73700000
   H     41.80300000    76.80400000    72.02300000
   H     41.43300000    78.54100000    71.90600000
   N     40.62000000    76.77000000    69.25000000
   C     40.76000000    76.70000000    67.81000000
   C     40.35000000    75.30000000    67.36000000
   O     39.39000000    74.73000000    67.87000000
   C     39.89000000    77.82000000    67.24000000
   C     40.14000000    78.06000000    65.76000000
   O     41.26000000    77.76000000    65.28000000
   O     39.24000000    78.68000000    65.16000000
   H     39.85000000    76.31000000    69.71000000
   H     41.81000000    76.72000000    67.51000000
   H     40.09000000    78.72000000    67.83000000
   H     38.85000000    77.52000000    67.39000000
   N     41.03000000    74.81000000    66.32000000
   C     40.65000000    73.63000000    65.56000000
   C     39.24000000    73.71000000    64.98000000
   O     38.67000000    74.79000000    64.85000000
   C     40.93000000    72.42000000    66.44000000
   C     42.41000000    72.23000000    66.80000000
   C     43.40000000    72.35000000    65.64000000
   C     44.63000000    71.55000000    66.07000000
   N     45.40000000    72.28000000    67.09000000
   H     41.72000000    75.42000000    65.92000000
   H     41.33000000    73.59000000    64.71000000
   H     40.64000000    71.49000000    65.96000000
   H     40.32000000    72.48000000    67.34000000
   H     42.48000000    71.25000000    67.27000000
   H     42.72000000    72.95000000    67.56000000
   H     43.77000000    73.37000000    65.53000000
   H     42.98000000    71.92000000    64.74000000
   H     45.30000000    71.51000000    65.21000000
   H     44.28000000    70.60000000    66.49000000
   H     45.98000000    73.02000000    66.72000000
   H     44.87000000    72.71000000    67.83000000
   H     46.04000000    71.65000000    67.54000000
   N     38.62000000    72.57000000    64.67000000
   C     37.30000000    72.53000000    64.09000000
   C     36.18000000    72.52000000    65.13000000
   O     35.15000000    73.16000000    64.94000000
   C     37.12000000    71.31000000    63.19000000
   C     37.51000000    69.93000000    63.71000000
   O     38.72000000    69.59000000    63.66000000
   O     36.65000000    69.04000000    63.91000000
   H     39.11000000    71.71000000    64.85000000
   H     37.08000000    73.37000000    63.42000000
   H     37.73000000    71.47000000    62.30000000
   H     36.09000000    71.25000000    62.86000000
   N     36.34000000    71.72000000    66.19000000
   C     35.49000000    71.67000000    67.37000000
   C     33.98000000    71.62000000    67.24000000
   O     33.21000000    72.15000000    68.04000000
   H     37.27000000    71.39000000    66.37000000
   H     35.74000000    72.51000000    68.02000000
   H     35.76000000    70.74000000    67.85000000
   N     33.52000000    70.93000000    66.19000000
   C     32.17000000    70.59000000    65.78000000
   C     32.11000000    69.07000000    65.73000000
   O     33.15000000    68.42000000    65.66000000
   C     31.85000000    71.22000000    64.43000000
   C     31.43000000    72.68000000    64.52000000
   N     32.41000000    73.54000000    64.78000000
   O     30.27000000    73.05000000    64.31000000
   H     34.21000000    70.31000000    65.78000000
   H     31.37000000    70.83000000    66.48000000
   H     31.07000000    70.69000000    63.88000000
   H     32.80000000    71.24000000    63.90000000
   H     33.34000000    73.25000000    65.06000000
   H     32.26000000    74.51000000    64.52000000
   N     30.89000000    68.54000000    65.67000000
   C     30.67000000    67.12000000    65.49000000
   C     30.95000000    66.35000000    66.77000000
   O     31.48000000    66.88000000    67.74000000
   H     30.05000000    69.09000000    65.58000000
   H     31.44000000    66.70000000    64.85000000
   H     29.70000000    66.78000000    65.14000000
   N     30.54000000    65.08000000    66.84000000
   C     30.42000000    64.29000000    68.05000000
   C     31.71000000    63.98000000    68.80000000
   O     31.62000000    63.53000000    69.94000000
   C     29.31000000    64.88000000    68.92000000
   C     28.63000000    63.97000000    69.91000000
   C     29.00000000    64.05000000    71.25000000
   C     27.62000000    63.11000000    69.47000000
   C     28.32000000    63.22000000    72.16000000
   C     26.98000000    62.28000000    70.40000000
   C     27.31000000    62.32000000    71.77000000
   O     26.95000000    61.28000000    72.58000000
   H     30.06000000    64.75000000    66.01000000
   H     30.02000000    63.38000000    67.61000000
   H     28.52000000    65.26000000    68.27000000
   H     29.79000000    65.70000000    69.46000000
   H     29.74000000    64.76000000    71.58000000
   H     27.39000000    63.01000000    68.42000000
   H     28.67000000    63.19000000    73.18000000
   H     26.19000000    61.59000000    70.14000000
   H     26.30000000    60.68000000    72.21000000
   N     32.90000000    64.25000000    68.26000000
   C     34.24000000    63.95000000    68.71000000
   C     34.65000000    62.49000000    68.66000000
   O     35.60000000    62.13000000    67.95000000
   C     34.51000000    64.77000000    69.97000000
   C     34.05000000    66.22000000    70.07000000
   C     36.00000000    64.75000000    70.27000000
   C     34.56000000    67.28000000    69.10000000
   H     32.99000000    64.79000000    67.42000000
   H     34.93000000    64.32000000    67.94000000
   H     34.04000000    64.22000000    70.78000000
   H     34.16000000    66.57000000    71.10000000
   H     32.98000000    66.23000000    69.87000000
   H     36.37000000    63.75000000    70.49000000
   H     36.64000000    65.25000000    69.54000000
   H     36.29000000    65.26000000    71.20000000
   H     34.43000000    66.90000000    68.09000000
   H     33.88000000    68.13000000    69.05000000
   H     35.62000000    67.46000000    69.31000000
   N     33.99000000    61.61000000    69.41000000
   C     34.13000000    60.16000000    69.39000000
   C     35.49000000    59.63000000    69.82000000
   O     35.96000000    58.67000000    69.22000000
   C     33.01000000    59.56000000    70.22000000
   O     32.93000000    60.04000000    71.55000000
   H     33.25000000    61.91000000    70.03000000
   H     34.01000000    59.78000000    68.37000000
   H     33.03000000    58.47000000    70.20000000
   H     32.10000000    59.88000000    69.71000000
   H     31.99000000    60.24000000    71.58000000
   N     36.17000000    60.34000000    70.73000000
   C     37.45000000    60.03000000    71.34000000
   C     38.52000000    59.87000000    70.27000000
   O     39.36000000    58.98000000    70.34000000
   C     37.33000000    58.82000000    72.27000000
   H     35.68000000    61.05000000    71.23000000
   H     37.75000000    60.87000000    71.97000000
   H     36.84000000    59.17000000    73.17000000
   H     36.81000000    58.03000000    71.72000000
   H     38.29000000    58.36000000    72.51000000
   N     38.44000000    60.67000000    69.20000000
   C     39.54000000    60.91000000    68.29000000
   C     39.99000000    62.36000000    68.29000000
   O     39.22000000    63.21000000    68.75000000
   C     39.15000000    60.45000000    66.89000000
   H     37.75000000    61.41000000    69.26000000
   H     40.43000000    60.36000000    68.59000000
   H     38.26000000    60.98000000    66.57000000
   H     40.00000000    60.60000000    66.22000000
   H     39.10000000    59.36000000    66.90000000
   N     41.22000000    62.67000000    67.89000000
   C     41.85000000    63.97000000    67.74000000
   C     42.25000000    64.66000000    69.04000000
   O     42.53000000    65.86000000    68.99000000
   C     41.01000000    64.83000000    66.81000000
   C     40.94000000    64.32000000    65.38000000
   C     40.11000000    65.19000000    64.44000000
   O     39.19000000    64.76000000    63.71000000
   O     40.46000000    66.38000000    64.33000000
   H     41.70000000    61.88000000    67.50000000
   H     42.72000000    63.86000000    67.09000000
   H     41.44000000    65.83000000    66.79000000
   H     39.99000000    65.00000000    67.17000000
   H     40.62000000    63.27000000    65.38000000
   H     41.96000000    64.32000000    64.98000000
   N     42.41000000    63.95000000    70.16000000
   C     42.42000000    64.54000000    71.48000000
   H     42.04500000    65.56200000    71.42300000
   H     41.78300000    63.95600000    72.14400000
   H     43.43900000    64.54800000    71.86700000
   H     42.26000000    62.96000000    70.09000000
  Ca     38.30000000    67.14000000    63.05000000
   O     36.97000000    66.08000000    65.07000000
   H     36.04000000    65.89000000    65.23000000
   H     37.44000000    65.39000000    65.54000000

Ca 1.70



