%chk=Ng-295_loop3_36.0.chk
%nprocshared=48
%mem=10GB
%nosave
#b3lyp/svp scf=(tight,noincore) Test 
#IOP(5/87=12) Density=Current Pop=(MK,readradii) iop(6/33=2) iop(6/42=6)

Ng-295_loop3_36.0 

   0   1
   C     98.97000000    73.29400000    73.58000000
   C     98.04000000    73.17400000    72.39000000
   O     97.35000000    74.10400000    72.00000000
   H     99.85000000    73.87100000    73.29600000
   H     98.45300000    73.79900000    74.39600000
   H     99.27700000    72.29900000    73.90400000
   N     98.00000000    72.01400000    71.73000000
   C     97.28000000    71.78400000    70.49000000
   C     95.76000000    71.81400000    70.66000000
   O     95.29000000    71.17400000    71.59000000
   C     97.82000000    70.55400000    69.78000000
   C     97.24000000    70.24400000    68.41000000
   O     97.97000000    69.73400000    67.52000000
   O     96.03000000    70.45400000    68.18000000
   H     98.57000000    71.23400000    72.02000000
   H     97.57000000    72.63400000    69.88000000
   H     97.72000000    69.65400000    70.39000000
   H     98.88000000    70.74400000    69.59000000
   N     94.98000000    72.55400000    69.87000000
   C     93.56000000    72.81400000    70.02000000
   C     92.68000000    71.64400000    69.61000000
   O     91.48000000    71.76400000    69.86000000
   C     93.29000000    74.06400000    69.18000000
   C     93.67000000    75.46400000    69.66000000
   C     92.91000000    75.74400000    70.94000000
   C     93.14000000    77.16400000    71.46000000
   N     94.52000000    77.43400000    71.91000000
   H     95.48000000    72.98400000    69.11000000
   H     93.35000000    73.01400000    71.07000000
   H     92.24000000    74.09400000    68.88000000
   H     93.68000000    73.78400000    68.20000000
   H     93.35000000    76.26400000    68.99000000
   H     94.74000000    75.50400000    69.89000000
   H     93.32000000    75.04400000    71.67000000
   H     91.84000000    75.53400000    70.91000000
   H     92.42000000    77.35400000    72.26000000
   H     92.89000000    77.93400000    70.74000000
   H     94.49000000    78.36400000    72.32000000
   H     94.73000000    76.84400000    72.70000000
   H     95.20000000    77.46400000    71.17000000
   N     93.23000000    70.60400000    68.98000000
   C     92.56000000    69.32400000    68.98000000
   C     93.42000000    68.12400000    69.32000000
   O     92.82000000    67.10400000    69.67000000
   C     91.81000000    69.00400000    67.69000000
   C     92.58000000    69.47400000    66.47000000
   O     91.99000000    70.17400000    65.61000000
   O     93.80000000    69.26400000    66.27000000
   H     94.21000000    70.66400000    68.73000000
   H     91.82000000    69.35400000    69.78000000
   H     90.81000000    69.42400000    67.82000000
   H     91.64000000    67.93400000    67.54000000
   N     94.74000000    68.16400000    69.13000000
   C     95.65000000    67.03400000    69.18000000
   C     95.56000000    66.07400000    68.01000000
   O     96.21000000    65.03400000    68.06000000
   H     95.17000000    69.03400000    68.84000000
   H     95.29000000    66.56400000    70.09000000
   H     96.67000000    67.42400000    69.13000000
   N     94.77000000    66.44400000    66.99000000
   C     94.87000000    65.86400000    65.67000000
   C     96.16000000    66.26400000    64.95000000
   O     96.59000000    67.40400000    65.01000000
   C     93.62000000    66.06400000    64.83000000
   C     93.80000000    66.13400000    63.32000000
   N     94.02000000    67.29400000    62.69000000
   O     93.90000000    65.08400000    62.69000000
   H     94.20000000    67.27400000    67.09000000
   H     94.83000000    64.80400000    65.90000000
   H     93.14000000    67.00400000    65.13000000
   H     92.98000000    65.19400000    64.97000000
   H     94.10000000    68.18400000    63.16000000
   H     94.19000000    67.20400000    61.70000000
   N     96.75000000    65.24400000    64.32000000
   C     97.82000000    65.44400000    63.37000000
   C     97.71000000    64.42400000    62.24000000
   O     98.75000000    63.99400000    61.75000000
   H     96.31000000    64.33400000    64.40000000
   H     98.77000000    65.25400000    63.86000000
   H     97.65000000    66.41400000    62.90000000
   N     96.48000000    64.09400000    61.84000000
   C     96.16000000    63.23400000    60.72000000
   C     96.02000000    64.01400000    59.41000000
   O     95.04000000    64.72400000    59.21000000
   C     94.88000000    62.43400000    60.94000000
   C     94.56000000    61.42400000    59.86000000
   C     93.45000000    61.51400000    59.01000000
   C     95.34000000    60.27400000    59.74000000
   C     93.20000000    60.57400000    58.01000000
   C     95.04000000    59.20400000    58.88000000
   C     93.97000000    59.39400000    57.99000000
   O     93.74000000    58.37400000    57.11000000
   H     95.65000000    64.49400000    62.24000000
   H     96.99000000    62.55400000    60.55000000
   H     94.07000000    63.16400000    60.91000000
   H     94.76000000    61.99400000    61.93000000
   H     92.78000000    62.35400000    59.09000000
   H     96.06000000    60.11400000    60.53000000
   H     92.30000000    60.58400000    57.41000000
   H     95.71000000    58.35400000    58.91000000
   H     94.49000000    57.76400000    57.06000000
   N     97.07000000    63.89400000    58.59000000
   C     97.33000000    64.70400000    57.42000000
   C     96.28000000    64.39400000    56.37000000
   O     95.36000000    63.63400000    56.66000000
   C     97.50000000    66.17400000    57.81000000
   C     98.12000000    67.09400000    56.77000000
   C     98.38000000    66.26400000    59.06000000
   C     97.90000000    68.59400000    56.94000000
   H     97.78000000    63.21400000    58.84000000
   H     98.28000000    64.33400000    57.05000000
   H     96.56000000    66.69400000    58.02000000
   H     97.85000000    66.81400000    55.75000000
   H     99.20000000    66.90400000    56.78000000
   H     99.20000000    65.55400000    59.00000000
   H     98.87000000    67.22400000    59.18000000
   H     97.68000000    66.02400000    59.86000000
   H     97.08000000    68.90400000    56.30000000
   H     97.64000000    68.87400000    57.96000000
   H     98.80000000    69.15400000    56.67000000
   N     96.50000000    64.84400000    55.13000000
   C     95.53000000    64.71400000    54.06000000
   C     95.99000000    64.01400000    52.79000000
   O     95.15000000    63.76400000    51.93000000
   C     94.96000000    66.08400000    53.70000000
   O     96.07000000    66.83400000    53.26000000
   H     97.40000000    65.28400000    55.06000000
   H     94.61000000    64.20400000    54.33000000
   H     94.48000000    66.49400000    54.59000000
   H     94.33000000    66.04400000    52.81000000
   H     95.78000000    67.74400000    53.25000000
   N     97.31000000    63.82400000    52.70000000
   C     98.11000000    63.38400000    51.58000000
   C     97.54000000    63.73400000    50.22000000
   O     97.07000000    62.92400000    49.42000000
   C     98.14000000    61.87400000    51.79000000
   H     97.82000000    64.23400000    53.46000000
   H     99.09000000    63.86400000    51.67000000
   H     98.79000000    61.48400000    51.00000000
   H     98.57000000    61.53400000    52.74000000
   H     97.18000000    61.42400000    51.54000000
   N     97.58000000    64.99400000    49.75000000
   C     98.16000000    66.14400000    50.41000000
   C     99.57000000    66.36400000    49.90000000
   O     99.78000000    66.29400000    48.69000000
   C     97.21000000    67.33400000    50.29000000
   H     97.05000000    65.10400000    48.90000000
   H     98.25000000    65.91400000    51.47000000
   H     97.54000000    68.17400000    50.90000000
   H     97.21000000    67.65400000    49.25000000
   H     96.18000000    67.06400000    50.54000000
   N    100.58000000    66.68400000    50.71000000
   C    100.61000000    66.89400000    52.14000000
   C    101.90000000    66.31400000    52.71000000
   O    101.86000000    65.81400000    53.83000000
   C    100.58000000    68.38400000    52.45000000
   C    100.19000000    68.64400000    53.91000000
   C    100.23000000    70.13400000    54.22000000
   O     99.58000000    70.88400000    53.46000000
   O    100.71000000    70.51400000    55.31000000
   H    101.44000000    66.73400000    50.17000000
   H     99.71000000    66.52400000    52.64000000
   H     99.88000000    68.90400000    51.79000000
   H    101.56000000    68.81400000    52.27000000
   H    100.88000000    68.08400000    54.54000000
   H     99.24000000    68.17400000    54.13000000
   N    102.98000000    66.26400000    51.93000000
   C    104.26000000    65.73400000    52.37000000
   H    104.98300000    66.54600000    52.44300000
   H    104.14300000    65.26400000    53.34600000
   H    104.61500000    64.99600000    51.65100000
   H    102.96000000    66.80400000    51.08000000
  Ca     96.18000000    70.30000000    65.55000000
   O     98.04000000    72.11000000    65.97000000
   H     98.07000000    72.59000000    66.80000000
   H     98.88000000    72.30000000    65.56000000

Ca 1.70



