%chk=Ng-295_loop3_5.0.chk
%nprocshared=48
%mem=10GB
%nosave
#b3lyp/svp scf=(tight,noincore) Test 
#IOP(5/87=12) Density=Current Pop=(MK,readradii) iop(6/33=2) iop(6/42=6)

Ng-295_loop3_5.0 

   0   1
   C     86.50000000    48.72000000    76.84000000
   C     86.86000000    48.04000000    78.15000000
   O     87.71000000    48.56000000    78.88000000
   H     85.66200000    49.39800000    77.00200000
   H     87.35800000    49.28500000    76.47500000
   H     86.22000000    47.96700000    76.10400000
   N     86.13000000    46.99000000    78.54000000
   C     86.50000000    46.21000000    79.70000000
   C     87.79000000    45.40000000    79.65000000
   O     88.20000000    44.90000000    78.60000000
   C     85.26000000    45.45000000    80.16000000
   C     85.38000000    44.82000000    81.54000000
   O     84.59000000    45.18000000    82.44000000
   O     85.97000000    43.72000000    81.54000000
   H     85.53000000    46.61000000    77.82000000
   H     86.54000000    46.96000000    80.50000000
   H     85.12000000    44.71000000    79.36000000
   H     84.43000000    46.15000000    80.14000000
   N     88.38000000    45.12000000    80.81000000
   C     89.61000000    44.35000000    80.88000000
   C     89.39000000    42.90000000    80.50000000
   O     90.06000000    42.43000000    79.57000000
   C     90.19000000    44.36000000    82.29000000
   C     91.63000000    43.97000000    82.62000000
   C     92.67000000    44.98000000    82.14000000
   C     94.10000000    44.52000000    82.44000000
   N     94.42000000    44.15000000    83.83000000
   H     87.99000000    45.52000000    81.65000000
   H     90.34000000    44.77000000    80.19000000
   H     89.47000000    43.83000000    82.92000000
   H     90.14000000    45.40000000    82.58000000
   H     91.79000000    42.95000000    82.29000000
   H     91.78000000    44.03000000    83.70000000
   H     92.54000000    45.96000000    82.59000000
   H     92.51000000    45.03000000    81.07000000
   H     94.65000000    45.42000000    82.17000000
   H     94.38000000    43.78000000    81.69000000
   H     95.42000000    44.15000000    83.94000000
   H     94.00000000    44.83000000    84.44000000
   H     94.06000000    43.22000000    84.01000000
   N     88.45000000    42.20000000    81.15000000
   C     88.03000000    40.84000000    80.87000000
   C     87.00000000    40.75000000    79.75000000
   O     86.75000000    39.70000000    79.15000000
   C     87.57000000    40.06000000    82.10000000
   C     86.56000000    40.91000000    82.85000000
   O     85.37000000    40.71000000    82.51000000
   O     86.97000000    41.80000000    83.63000000
   H     87.87000000    42.76000000    81.75000000
   H     88.91000000    40.29000000    80.56000000
   H     88.36000000    39.82000000    82.81000000
   H     87.13000000    39.13000000    81.76000000
   N     86.39000000    41.88000000    79.42000000
   C     85.50000000    42.10000000    78.29000000
   C     84.01000000    41.97000000    78.58000000
   O     83.19000000    42.04000000    77.67000000
   H     86.49000000    42.66000000    80.06000000
   H     85.73000000    41.32000000    77.57000000
   H     85.67000000    43.02000000    77.73000000
   N     83.67000000    41.63000000    79.82000000
   C     82.28000000    41.67000000    80.23000000
   C     82.07000000    42.84000000    81.17000000
   O     82.93000000    43.03000000    82.03000000
   C     81.78000000    40.37000000    80.86000000
   C     81.62000000    39.32000000    79.77000000
   N     82.49000000    38.31000000    79.72000000
   O     80.62000000    39.31000000    79.05000000
   H     84.40000000    41.55000000    80.51000000
   H     81.63000000    41.96000000    79.41000000
   H     80.80000000    40.54000000    81.30000000
   H     82.55000000    39.99000000    81.52000000
   H     83.26000000    38.39000000    80.37000000
   H     82.18000000    37.54000000    79.14000000
   N     81.02000000    43.66000000    81.03000000
   C     80.94000000    44.96000000    81.68000000
   C     80.85000000    44.90000000    83.20000000
   O     81.08000000    45.89000000    83.90000000
   H     80.27000000    43.27000000    80.49000000
   H     80.09000000    45.50000000    81.28000000
   H     81.82000000    45.52000000    81.37000000
   N     80.40000000    43.78000000    83.77000000
   C     80.25000000    43.54000000    85.19000000
   C     81.50000000    43.88000000    85.99000000
   O     82.55000000    43.66000000    85.40000000
   C     79.75000000    42.12000000    85.46000000
   C     78.39000000    41.82000000    84.88000000
   C     77.30000000    42.21000000    85.67000000
   C     78.19000000    41.29000000    83.61000000
   C     75.99000000    41.99000000    85.22000000
   C     76.89000000    41.06000000    83.12000000
   C     75.81000000    41.42000000    83.95000000
   O     74.52000000    41.29000000    83.52000000
   H     80.34000000    42.96000000    83.18000000
   H     79.57000000    44.28000000    85.61000000
   H     79.65000000    42.01000000    86.54000000
   H     80.39000000    41.35000000    85.05000000
   H     77.55000000    42.72000000    86.59000000
   H     79.05000000    41.05000000    83.01000000
   H     75.11000000    42.34000000    85.75000000
   H     76.80000000    40.61000000    82.14000000
   H     74.41000000    40.94000000    82.63000000
   N     81.22000000    44.38000000    87.20000000
   C     82.19000000    44.58000000    88.26000000
   C     83.04000000    43.41000000    88.70000000
   O     83.32000000    42.44000000    88.00000000
   C     83.05000000    45.83000000    88.06000000
   C     82.20000000    46.96000000    87.50000000
   C     84.31000000    45.70000000    87.20000000
   C     81.01000000    47.30000000    88.40000000
   H     80.27000000    44.69000000    87.36000000
   H     81.56000000    44.80000000    89.12000000
   H     83.42000000    46.13000000    89.04000000
   H     81.83000000    46.70000000    86.50000000
   H     82.81000000    47.87000000    87.52000000
   H     85.14000000    45.14000000    87.62000000
   H     84.03000000    45.36000000    86.21000000
   H     84.81000000    46.62000000    86.92000000
   H     81.21000000    47.33000000    89.47000000
   H     80.73000000    48.28000000    88.02000000
   H     80.25000000    46.55000000    88.17000000
   N     83.40000000    43.45000000    89.99000000
   C     83.98000000    42.39000000    90.79000000
   C     83.09000000    42.00000000    91.96000000
   O     83.05000000    40.81000000    92.23000000
   C     85.37000000    42.79000000    91.27000000
   O     85.30000000    43.94000000    92.10000000
   H     83.05000000    44.23000000    90.52000000
   H     84.14000000    41.53000000    90.13000000
   H     86.03000000    42.98000000    90.42000000
   H     85.76000000    41.98000000    91.88000000
   H     86.21000000    44.08000000    92.37000000
   N     82.41000000    43.00000000    92.53000000
   C     81.50000000    42.86000000    93.64000000
   C     82.07000000    42.06000000    94.81000000
   O     81.40000000    41.15000000    95.28000000
   C     80.15000000    42.50000000    93.03000000
   H     82.74000000    43.93000000    92.28000000
   H     81.42000000    43.88000000    94.02000000
   H     79.95000000    43.09000000    92.14000000
   H     80.18000000    41.45000000    92.74000000
   H     79.42000000    42.67000000    93.82000000
   N     83.24000000    42.34000000    95.39000000
   C     84.06000000    43.53000000    95.33000000
   C     83.60000000    44.61000000    96.30000000
   O     83.35000000    44.40000000    97.49000000
   C     85.46000000    43.03000000    95.65000000
   H     83.49000000    41.77000000    96.19000000
   H     84.04000000    43.99000000    94.35000000
   H     86.27000000    43.74000000    95.52000000
   H     85.47000000    42.73000000    96.70000000
   H     85.69000000    42.11000000    95.10000000
   N     83.46000000    45.87000000    95.88000000
   C     83.36000000    46.38000000    94.53000000
   C     82.48000000    47.61000000    94.32000000
   O     81.97000000    47.79000000    93.22000000
   C     84.78000000    46.62000000    94.00000000
   C     85.52000000    47.72000000    94.75000000
   C     86.91000000    48.03000000    94.20000000
   O     87.29000000    49.21000000    94.26000000
   O     87.66000000    47.14000000    93.75000000
   H     83.33000000    46.49000000    96.66000000
   H     82.93000000    45.63000000    93.87000000
   H     84.55000000    46.86000000    92.97000000
   H     85.28000000    45.65000000    94.00000000
   H     85.71000000    47.32000000    95.75000000
   H     84.92000000    48.63000000    94.83000000
   N     82.08000000    48.30000000    95.39000000
   C     81.18000000    49.43000000    95.39000000
   H     80.25700000    49.15900000    95.90300000
   H     81.64900000    50.26900000    95.90500000
   H     80.95300000    49.71500000    94.36300000
   H     82.66000000    48.18000000    96.20000000
  Ca     84.71000000    43.09000000    83.92000000
   O     83.98000000    40.63000000    84.79000000
   H     84.39000000    39.88000000    84.36000000
   H     83.44000000    40.25000000    85.48000000

Ca 1.70



