%chk=Ng-295_loop3_39.0.chk
%nprocshared=48
%mem=10GB
%nosave
#b3lyp/svp scf=(tight,noincore) Test 
#IOP(5/87=12) Density=Current Pop=(MK,readradii) iop(6/33=2) iop(6/42=6)

Ng-295_loop3_39.0 

   0   1
   C      9.35200000    75.61800000    67.44000000
   C      8.46200000    75.04800000    66.34000000
   O      7.70200000    75.81800000    65.77000000
   H     10.24400000    76.05800000    66.99400000
   H      8.80500000    76.38400000    67.99000000
   H      9.64400000    74.81900000    68.12200000
   N      8.56200000    73.80800000    65.84000000
   C      7.83200000    73.25800000    64.72000000
   C      6.86200000    72.20800000    65.23000000
   O      7.21200000    71.24800000    65.90000000
   C      8.90200000    72.68800000    63.79000000
   C      8.32200000    72.21800000    62.46000000
   O      8.98200000    72.45800000    61.43000000
   O      7.16200000    71.76800000    62.47000000
   H      9.17200000    73.15800000    66.31000000
   H      7.24200000    74.04800000    64.25000000
   H      9.45200000    71.81800000    64.17000000
   H      9.68200000    73.44800000    63.73000000
   N      5.59200000    72.33800000    64.83000000
   C      4.49200000    71.53800000    65.32000000
   C      4.43200000    70.12800000    64.76000000
   O      3.68200000    69.28800000    65.27000000
   C      3.17200000    72.29800000    65.21000000
   C      3.07200000    73.68800000    65.82000000
   C      3.42200000    73.66800000    67.30000000
   C      3.55200000    74.98800000    68.04000000
   N      3.84200000    74.75800000    69.47000000
   H      5.38200000    73.12800000    64.23000000
   H      4.69200000    71.32800000    66.37000000
   H      2.41200000    71.64800000    65.66000000
   H      2.88200000    72.25800000    64.16000000
   H      2.06200000    74.07800000    65.85000000
   H      3.61200000    74.45800000    65.26000000
   H      4.37200000    73.15800000    67.49000000
   H      2.66200000    73.06800000    67.80000000
   H      2.52200000    75.32800000    68.12000000
   H      4.15200000    75.76800000    67.57000000
   H      4.01200000    75.59800000    70.00000000
   H      3.08200000    74.27800000    69.93000000
   H      4.66200000    74.16800000    69.55000000
   N      5.18200000    69.82800000    63.70000000
   C      5.26200000    68.50800000    63.11000000
   C      6.61200000    68.01800000    62.60000000
   O      6.73200000    66.82800000    62.30000000
   C      4.31200000    68.33800000    61.93000000
   C      4.51200000    69.28800000    60.76000000
   O      3.80200000    69.00800000    59.78000000
   O      5.43200000    70.13800000    60.73000000
   H      5.79200000    70.52800000    63.32000000
   H      5.03200000    67.77800000    63.89000000
   H      3.28200000    68.33800000    62.30000000
   H      4.37200000    67.32800000    61.52000000
   N      7.57200000    68.92800000    62.44000000
   C      8.87200000    68.60800000    61.88000000
   C      9.05200000    68.47800000    60.37000000
   O     10.16200000    68.31800000    59.87000000
   H      7.30200000    69.89800000    62.43000000
   H      9.42200000    67.82800000    62.40000000
   H      9.39200000    69.53800000    62.11000000
   N      7.92200000    68.51800000    59.66000000
   C      7.87200000    68.72800000    58.22000000
   C      8.30200000    70.08800000    57.69000000
   O      7.99200000    71.02800000    58.41000000
   C      6.43200000    68.45800000    57.78000000
   C      6.16200000    68.74800000    56.31000000
   N      5.64200000    69.94800000    56.04000000
   O      6.44200000    67.87800000    55.49000000
   H      7.11200000    68.75800000    60.20000000
   H      8.47200000    67.99800000    57.69000000
   H      5.87200000    69.22800000    58.31000000
   H      6.19200000    67.42800000    58.01000000
   H      5.52200000    70.66800000    56.75000000
   H      5.84200000    70.21800000    55.09000000
   N      8.86200000    70.28800000    56.49000000
   C      9.24200000    71.57800000    55.95000000
   C     10.25200000    71.44800000    54.82000000
   O     11.23200000    72.18800000    54.80000000
   H      9.11200000    69.48800000    55.93000000
   H      9.63200000    72.25800000    56.71000000
   H      8.34200000    72.10800000    55.64000000
   N     10.00200000    70.56800000    53.84000000
   C     10.61200000    70.57800000    52.53000000
   C      9.88200000    71.50800000    51.56000000
   O      8.67200000    71.65800000    51.70000000
   C     10.69200000    69.14800000    52.00000000
   C     11.62200000    68.82800000    50.86000000
   C     11.18200000    68.83800000    49.52000000
   C     12.96200000    68.55800000    51.17000000
   C     12.03200000    68.37800000    48.51000000
   C     13.84200000    68.15800000    50.16000000
   C     13.34200000    67.97800000    48.85000000
   O     14.21200000    67.62800000    47.86000000
   H      9.09200000    70.13800000    53.81000000
   H     11.63200000    70.93800000    52.71000000
   H      9.71200000    68.91800000    51.58000000
   H     10.92200000    68.49800000    52.84000000
   H     10.15200000    69.08800000    49.36000000
   H     13.27200000    68.42800000    52.20000000
   H     11.73200000    68.36800000    47.48000000
   H     14.88200000    68.01800000    50.42000000
   H     15.13200000    67.68800000    48.10000000
   N     10.70200000    72.19800000    50.76000000
   C     10.33200000    73.32800000    49.94000000
   C      9.25200000    73.14800000    48.89000000
   O      8.37200000    72.29800000    49.04000000
   C     10.00200000    74.59800000    50.74000000
   C     11.08200000    74.88800000    51.77000000
   C      8.60200000    74.74800000    51.32000000
   C     12.53200000    74.85800000    51.28000000
   H     11.67200000    71.89800000    50.71000000
   H     11.15200000    73.59800000    49.28000000
   H     10.22200000    75.43800000    50.07000000
   H     10.98200000    74.29800000    52.69000000
   H     10.88200000    75.87800000    52.17000000
   H      7.93200000    74.58800000    50.48000000
   H      8.42200000    73.96800000    52.06000000
   H      8.56200000    75.74800000    51.75000000
   H     12.91200000    73.90800000    50.90000000
   H     12.70200000    75.51800000    50.43000000
   H     13.20200000    75.18800000    52.07000000
   N      9.31200000    73.88800000    47.78000000
   C      8.28200000    74.04800000    46.78000000
   C      8.91200000    74.34800000    45.42000000
   O      8.37200000    73.94800000    44.39000000
   C      7.28200000    75.11800000    47.21000000
   O      7.91200000    76.36800000    47.37000000
   H     10.11200000    74.49800000    47.70000000
   H      7.75200000    73.09800000    46.69000000
   H      6.77200000    74.83800000    48.14000000
   H      6.56200000    75.29800000    46.41000000
   H      7.41200000    76.93800000    47.96000000
   N      9.88200000    75.24800000    45.23000000
   C     10.60200000    75.58800000    44.01000000
   C      9.68200000    75.95800000    42.86000000
   O      9.77200000    75.44800000    41.75000000
   C     11.52200000    74.45800000    43.56000000
   H     10.28200000    75.58800000    46.09000000
   H     11.23200000    76.44800000    44.23000000
   H     10.98200000    73.56800000    43.23000000
   H     12.12200000    74.79800000    42.71000000
   H     12.16200000    74.21800000    44.41000000
   N      8.83200000    76.98800000    42.92000000
   C      8.73200000    78.04800000    43.90000000
   C      9.64200000    79.25800000    43.69000000
   O      9.61200000    79.96800000    42.69000000
   C      7.27200000    78.47800000    44.03000000
   H      8.30200000    77.15800000    42.08000000
   H      9.04200000    77.70800000    44.89000000
   H      7.26200000    79.46800000    44.49000000
   H      6.95200000    78.65800000    43.01000000
   H      6.62200000    77.76800000    44.53000000
   N     10.51200000    79.61800000    44.63000000
   C     10.76200000    79.10800000    45.96000000
   C     12.26200000    79.00800000    46.19000000
   O     12.67200000    78.04800000    46.84000000
   C     10.18200000    80.05800000    47.01000000
   C     10.48200000    79.66800000    48.45000000
   C      9.80200000    80.61800000    49.43000000
   O      8.55200000    80.73800000    49.47000000
   O     10.48200000    81.37800000    50.15000000
   H     11.06200000    80.38800000    44.29000000
   H     10.39200000    78.08800000    46.11000000
   H      9.12200000    80.06800000    46.73000000
   H     10.56200000    81.04800000    46.74000000
   H     11.55200000    79.66800000    48.66000000
   H     10.02200000    78.68800000    48.57000000
   N     13.13200000    79.95800000    45.82000000
   C     14.53200000    80.04800000    46.16000000
   H     15.07000000    80.54800000    45.35400000
   H     14.64700000    80.61900000    47.08200000
   H     14.93800000    79.04600000    46.29900000
   H     12.74200000    80.65800000    45.20000000
  Ca      6.17000000    72.57000000    60.14000000
   O      7.93000000    73.84000000    58.85000000
   H      8.66000000    74.23000000    59.33000000
   H      7.84000000    74.38000000    58.07000000

Ca 1.70



