%chk=Ng-293_loop3_48.0.chk
%nprocshared=48
%mem=10GB
%nosave
#b3lyp/svp scf=(tight,noincore) Test 
#IOP(5/87=12) Density=Current Pop=(MK,readradii) iop(6/33=2) iop(6/42=6)

Ng-293_loop3_48.0 

   0   1
   C     55.01000000    23.14000000     7.23000000
   C     54.48000000    24.41000000     6.59000000
   O     54.24000000    24.35000000     5.39000000
   H     55.93800000    23.36000000     7.75800000
   H     54.27400000    22.75300000     7.93500000
   H     55.20000000    22.39500000     6.45700000
   N     54.19000000    25.48000000     7.34000000
   C     53.70000000    26.68000000     6.69000000
   C     52.19000000    26.68000000     6.57000000
   O     51.45000000    26.12000000     7.38000000
   C     54.14000000    27.93000000     7.45000000
   C     54.14000000    28.05000000     8.97000000
   O     54.29000000    29.21000000     9.39000000
   O     53.97000000    27.11000000     9.78000000
   H     54.31000000    25.41000000     8.34000000
   H     54.10000000    26.76000000     5.68000000
   H     53.80000000    28.87000000     7.02000000
   H     55.22000000    27.91000000     7.27000000
   N     51.73000000    27.38000000     5.53000000
   C     50.42000000    27.68000000     5.00000000
   C     49.39000000    28.35000000     5.90000000
   O     48.58000000    29.15000000     5.43000000
   C     49.86000000    26.50000000     4.20000000
   C     50.77000000    26.03000000     3.07000000
   C     50.25000000    24.71000000     2.51000000
   C     50.80000000    24.51000000     1.10000000
   N     52.23000000    24.19000000     0.98000000
   H     52.47000000    27.87000000     5.05000000
   H     50.55000000    28.47000000     4.26000000
   H     48.94000000    26.89000000     3.76000000
   H     49.57000000    25.70000000     4.88000000
   H     51.73000000    25.78000000     3.53000000
   H     50.80000000    26.89000000     2.39000000
   H     49.17000000    24.81000000     2.50000000
   H     50.55000000    24.01000000     3.29000000
   H     50.69000000    25.41000000     0.49000000
   H     50.27000000    23.69000000     0.61000000
   H     52.60000000    23.56000000     1.68000000
   H     52.48000000    23.86000000     0.06000000
   H     52.78000000    24.98000000     1.28000000
   N     49.53000000    28.13000000     7.20000000
   C     48.96000000    28.91000000     8.28000000
   C     50.03000000    29.57000000     9.14000000
   O     51.14000000    29.06000000     9.32000000
   C     48.15000000    27.99000000     9.19000000
   C     47.33000000    28.61000000    10.30000000
   O     46.82000000    29.75000000    10.28000000
   O     46.94000000    27.88000000    11.23000000
   H     50.18000000    27.37000000     7.36000000
   H     48.30000000    29.71000000     7.95000000
   H     48.81000000    27.31000000     9.74000000
   H     47.47000000    27.40000000     8.58000000
   N     49.75000000    30.75000000     9.70000000
   C     50.57000000    31.39000000    10.71000000
   C     50.03000000    31.09000000    12.10000000
   O     48.84000000    31.14000000    12.39000000
   H     48.85000000    31.18000000     9.58000000
   H     50.52000000    32.46000000    10.50000000
   H     51.61000000    31.08000000    10.73000000
   N     50.91000000    30.77000000    13.06000000
   C     50.51000000    30.60000000    14.44000000
   C     51.28000000    31.57000000    15.32000000
   O     51.06000000    31.48000000    16.52000000
   C     50.79000000    29.15000000    14.83000000
   C     49.73000000    28.21000000    14.28000000
   N     49.72000000    27.89000000    12.98000000
   O     48.80000000    27.85000000    15.00000000
   H     51.90000000    30.70000000    12.87000000
   H     49.45000000    30.83000000    14.58000000
   H     50.77000000    29.09000000    15.92000000
   H     51.75000000    28.86000000    14.40000000
   H     50.41000000    28.35000000    12.41000000
   H     48.88000000    27.47000000    12.61000000
   N     52.17000000    32.48000000    14.90000000
   C     52.89000000    33.47000000    15.67000000
   C     53.41000000    33.00000000    17.02000000
   O     54.25000000    32.11000000    17.06000000
   H     52.34000000    32.48000000    13.90000000
   H     52.42000000    34.44000000    15.86000000
   H     53.71000000    33.86000000    15.07000000
   N     52.91000000    33.68000000    18.06000000
   C     53.26000000    33.49000000    19.45000000
   C     52.80000000    32.16000000    20.04000000
   O     52.97000000    31.90000000    21.23000000
   C     54.74000000    33.75000000    19.74000000
   C     55.05000000    35.21000000    19.96000000
   C     55.62000000    36.01000000    18.97000000
   C     54.49000000    35.83000000    21.09000000
   C     55.74000000    37.40000000    19.11000000
   C     54.66000000    37.21000000    21.28000000
   C     55.25000000    38.01000000    20.29000000
   O     55.29000000    39.37000000    20.44000000
   H     52.27000000    34.42000000    17.82000000
   H     52.63000000    34.28000000    19.85000000
   H     55.29000000    33.46000000    18.85000000
   H     55.00000000    33.09000000    20.57000000
   H     55.88000000    35.53000000    18.04000000
   H     54.00000000    35.24000000    21.85000000
   H     56.07000000    38.04000000    18.31000000
   H     54.26000000    37.74000000    22.13000000
   H     54.90000000    39.62000000    21.28000000
   N     52.08000000    31.32000000    19.29000000
   C     51.35000000    30.15000000    19.72000000
   C     50.13000000    30.36000000    20.62000000
   O     49.01000000    30.01000000    20.26000000
   C     52.13000000    28.86000000    19.96000000
   C     53.12000000    28.55000000    18.83000000
   C     51.24000000    27.62000000    20.03000000
   C     54.30000000    27.71000000    19.30000000
   H     51.99000000    31.60000000    18.33000000
   H     50.81000000    29.91000000    18.81000000
   H     52.82000000    28.99000000    20.79000000
   H     53.51000000    29.48000000    18.42000000
   H     52.58000000    28.09000000    18.00000000
   H     50.70000000    27.52000000    19.09000000
   H     51.82000000    26.72000000    20.24000000
   H     50.40000000    27.73000000    20.71000000
   H     54.81000000    28.03000000    20.20000000
   H     54.00000000    26.71000000    19.60000000
   H     55.04000000    27.72000000    18.49000000
   N     50.28000000    31.06000000    21.75000000
   C     49.25000000    31.36000000    22.71000000
   C     48.41000000    30.17000000    23.18000000
   O     47.31000000    30.35000000    23.71000000
   C     49.82000000    32.07000000    23.94000000
   O     50.60000000    33.17000000    23.53000000
   H     51.23000000    31.34000000    21.94000000
   H     48.53000000    32.07000000    22.30000000
   H     50.39000000    31.38000000    24.56000000
   H     48.94000000    32.43000000    24.48000000
   H     49.98000000    33.77000000    23.14000000
   N     48.82000000    28.93000000    22.91000000
   C     48.05000000    27.72000000    23.14000000
   C     46.72000000    27.61000000    22.42000000
   O     45.72000000    27.27000000    23.06000000
   C     48.00000000    27.36000000    24.62000000
   H     49.68000000    28.87000000    22.39000000
   H     48.71000000    26.98000000    22.69000000
   H     47.23000000    26.61000000    24.77000000
   H     48.98000000    27.01000000    24.95000000
   H     47.80000000    28.27000000    25.20000000
   N     46.67000000    27.95000000    21.13000000
   C     45.43000000    28.05000000    20.39000000
   C     45.51000000    27.13000000    19.19000000
   O     46.56000000    26.60000000    18.83000000
   C     45.15000000    29.48000000    19.93000000
   H     47.54000000    28.03000000    20.63000000
   H     44.68000000    27.73000000    21.11000000
   H     44.22000000    29.47000000    19.35000000
   H     45.12000000    30.19000000    20.76000000
   H     46.00000000    29.74000000    19.31000000
   N     44.36000000    26.87000000    18.56000000
   C     44.20000000    25.92000000    17.48000000
   C     44.66000000    24.50000000    17.78000000
   O     45.26000000    23.82000000    16.95000000
   C     44.79000000    26.43000000    16.18000000
   C     44.07000000    27.68000000    15.66000000
   C     44.34000000    28.16000000    14.25000000
   O     43.51000000    27.83000000    13.37000000
   O     45.36000000    28.77000000    13.85000000
   H     43.49000000    27.30000000    18.84000000
   H     43.12000000    25.87000000    17.32000000
   H     44.69000000    25.66000000    15.41000000
   H     45.85000000    26.64000000    16.33000000
   H     44.16000000    28.55000000    16.31000000
   H     43.02000000    27.38000000    15.62000000
   N     44.26000000    24.00000000    18.95000000
   C     44.79000000    22.74000000    19.43000000
   H     45.72700000    22.91800000    19.95800000
   H     44.07300000    22.27900000    20.10900000
   H     44.97100000    22.07600000    18.58500000
   H     43.70000000    24.55000000    19.59000000
  Ca     44.57000000    29.01000000    11.22000000
   O     44.21000000    26.53000000    10.42000000
   H     44.53000000    26.07000000     9.64000000
   H     43.76000000    25.86000000    10.93000000

Ca 1.70



