%chk=Ng-293_loop3_34.0.chk
%nprocshared=48
%mem=10GB
%nosave
#b3lyp/svp scf=(tight,noincore) Test 
#IOP(5/87=12) Density=Current Pop=(MK,readradii) iop(6/33=2) iop(6/42=6)

Ng-293_loop3_34.0 

   0   1
   C     65.70000000    24.96000000     9.61000000
   C     65.83000000    25.80000000     8.34000000
   O     64.86000000    25.96000000     7.61000000
   H     64.64800000    24.74300000     9.79500000
   H     66.24700000    24.02500000     9.48600000
   H     66.11100000    25.51200000    10.45500000
   N     67.03000000    26.28000000     8.03000000
   C     67.24000000    27.25000000     6.97000000
   C     66.71000000    28.65000000     7.23000000
   O     66.76000000    29.14000000     8.36000000
   C     68.69000000    27.35000000     6.49000000
   C     69.72000000    27.74000000     7.53000000
   O     70.67000000    26.94000000     7.67000000
   O     69.67000000    28.92000000     7.96000000
   H     67.66000000    26.22000000     8.82000000
   H     66.75000000    26.94000000     6.05000000
   H     68.84000000    28.04000000     5.66000000
   H     68.99000000    26.35000000     6.16000000
   N     66.24000000    29.37000000     6.21000000
   C     65.56000000    30.65000000     6.17000000
   C     66.23000000    31.91000000     6.70000000
   O     66.07000000    32.93000000     6.03000000
   C     64.19000000    30.45000000     6.82000000
   C     63.24000000    31.56000000     6.37000000
   C     61.87000000    31.27000000     6.97000000
   C     60.84000000    32.36000000     6.71000000
   N     59.59000000    32.18000000     7.46000000
   H     66.54000000    28.94000000     5.34000000
   H     65.41000000    30.80000000     5.10000000
   H     64.21000000    30.38000000     7.90000000
   H     63.77000000    29.53000000     6.39000000
   H     63.08000000    31.68000000     5.30000000
   H     63.52000000    32.51000000     6.83000000
   H     61.99000000    31.18000000     8.05000000
   H     61.43000000    30.35000000     6.59000000
   H     60.70000000    32.46000000     5.64000000
   H     61.22000000    33.33000000     7.04000000
   H     59.85000000    32.19000000     8.44000000
   H     58.88000000    32.88000000     7.28000000
   H     59.13000000    31.29000000     7.29000000
   N     66.77000000    31.81000000     7.91000000
   C     66.92000000    32.94000000     8.81000000
   C     68.03000000    32.56000000     9.78000000
   O     67.86000000    31.66000000    10.60000000
   C     65.56000000    33.25000000     9.42000000
   C     65.42000000    34.45000000    10.34000000
   O     66.36000000    35.22000000    10.61000000
   O     64.25000000    34.76000000    10.68000000
   H     66.83000000    30.89000000     8.33000000
   H     67.21000000    33.84000000     8.27000000
   H     65.25000000    32.38000000    10.01000000
   H     64.79000000    33.27000000     8.65000000
   N     69.21000000    33.16000000     9.55000000
   C     70.33000000    33.18000000    10.46000000
   C     69.82000000    33.63000000    11.82000000
   O     68.90000000    34.45000000    11.89000000
   H     69.28000000    33.79000000     8.77000000
   H     71.13000000    33.86000000    10.16000000
   H     70.66000000    32.15000000    10.57000000
   N     70.48000000    33.12000000    12.87000000
   C     70.09000000    33.44000000    14.23000000
   C     71.34000000    33.66000000    15.08000000
   O     71.33000000    34.45000000    16.01000000
   C     69.24000000    32.39000000    14.93000000
   C     67.93000000    31.84000000    14.40000000
   N     67.96000000    30.64000000    13.81000000
   O     66.85000000    32.41000000    14.57000000
   H     71.25000000    32.47000000    12.76000000
   H     69.61000000    34.42000000    14.27000000
   H     69.14000000    32.67000000    15.98000000
   H     69.91000000    31.54000000    15.06000000
   H     68.78000000    30.06000000    13.70000000
   H     67.13000000    30.32000000    13.34000000
   N     72.47000000    33.02000000    14.77000000
   C     73.79000000    33.26000000    15.33000000
   C     73.90000000    32.95000000    16.81000000
   O     73.46000000    31.91000000    17.29000000
   H     72.47000000    32.31000000    14.06000000
   H     74.12000000    34.28000000    15.13000000
   H     74.47000000    32.62000000    14.77000000
   N     74.41000000    33.92000000    17.57000000
   C     74.42000000    33.96000000    19.02000000
   C     73.05000000    33.81000000    19.66000000
   O     73.00000000    33.75000000    20.89000000
   C     75.51000000    33.10000000    19.65000000
   C     76.95000000    33.34000000    19.26000000
   C     77.76000000    32.29000000    18.82000000
   C     77.50000000    34.63000000    19.33000000
   C     79.04000000    32.54000000    18.31000000
   C     78.83000000    34.84000000    18.97000000
   C     79.64000000    33.81000000    18.44000000
   O     80.93000000    34.14000000    18.15000000
   H     74.80000000    34.71000000    17.07000000
   H     74.59000000    35.03000000    19.15000000
   H     75.33000000    32.06000000    19.38000000
   H     75.42000000    33.05000000    20.73000000
   H     77.40000000    31.28000000    18.86000000
   H     76.89000000    35.45000000    19.69000000
   H     79.62000000    31.70000000    17.94000000
   H     79.18000000    35.84000000    19.17000000
   H     80.98000000    35.10000000    18.16000000
   N     72.00000000    33.91000000    18.85000000
   C     70.59000000    34.03000000    19.16000000
   C     70.17000000    35.30000000    19.89000000
   O     69.10000000    35.89000000    19.74000000
   C     70.15000000    32.73000000    19.83000000
   C     70.39000000    31.51000000    18.96000000
   C     68.71000000    32.81000000    20.36000000
   C     70.96000000    30.35000000    19.77000000
   H     72.22000000    33.95000000    17.86000000
   H     70.13000000    34.10000000    18.18000000
   H     70.75000000    32.62000000    20.74000000
   H     71.11000000    31.61000000    18.15000000
   H     69.49000000    31.13000000    18.46000000
   H     68.28000000    31.81000000    20.29000000
   H     68.64000000    33.16000000    21.39000000
   H     68.14000000    33.47000000    19.71000000
   H     71.94000000    30.58000000    20.18000000
   H     70.28000000    30.12000000    20.59000000
   H     70.94000000    29.49000000    19.11000000
   N     70.97000000    35.78000000    20.85000000
   C     70.79000000    37.10000000    21.43000000
   C     69.59000000    37.24000000    22.35000000
   O     68.99000000    38.31000000    22.47000000
   C     72.14000000    37.44000000    22.06000000
   O     73.12000000    37.40000000    21.05000000
   H     71.82000000    35.26000000    21.00000000
   H     70.65000000    37.79000000    20.60000000
   H     72.27000000    36.69000000    22.85000000
   H     72.15000000    38.43000000    22.51000000
   H     73.92000000    37.71000000    21.47000000
   N     69.08000000    36.12000000    22.87000000
   C     67.82000000    35.97000000    23.57000000
   C     66.59000000    36.42000000    22.78000000
   O     65.51000000    36.62000000    23.33000000
   C     67.91000000    36.57000000    24.97000000
   H     69.61000000    35.27000000    22.74000000
   H     67.73000000    34.89000000    23.60000000
   H     68.29000000    37.59000000    24.99000000
   H     66.97000000    36.66000000    25.52000000
   H     68.54000000    35.94000000    25.61000000
   N     66.68000000    36.31000000    21.45000000
   C     65.58000000    36.63000000    20.57000000
   C     65.03000000    35.49000000    19.72000000
   O     65.74000000    34.55000000    19.36000000
   C     66.12000000    37.75000000    19.69000000
   H     67.58000000    36.24000000    21.00000000
   H     64.74000000    37.09000000    21.10000000
   H     65.54000000    37.89000000    18.78000000
   H     66.24000000    38.70000000    20.22000000
   H     67.16000000    37.51000000    19.49000000
   N     63.80000000    35.66000000    19.23000000
   C     63.10000000    34.74000000    18.35000000
   C     62.97000000    33.29000000    18.78000000
   O     62.48000000    32.40000000    18.09000000
   C     63.66000000    34.80000000    16.93000000
   C     63.16000000    36.10000000    16.30000000
   C     63.86000000    36.28000000    14.96000000
   O     63.65000000    35.45000000    14.05000000
   O     64.68000000    37.20000000    14.75000000
   H     63.21000000    36.38000000    19.60000000
   H     62.05000000    35.00000000    18.32000000
   H     63.36000000    33.93000000    16.35000000
   H     64.75000000    34.72000000    16.90000000
   H     63.31000000    36.99000000    16.90000000
   H     62.08000000    36.00000000    16.18000000
   N     63.37000000    33.05000000    20.03000000
   C     63.15000000    31.85000000    20.81000000
   H     62.14100000    31.48000000    20.63000000
   H     63.87300000    31.08900000    20.51800000
   H     63.26900000    32.07800000    21.86900000
   H     63.97000000    33.76000000    20.43000000
  Ca     65.17000000    36.84000000    12.22000000
   O     67.59000000    37.82000000    12.48000000
   H     68.00000000    38.49000000    13.03000000
   H     68.30000000    37.46000000    11.96000000

Ca 1.70



