%chk=Ng-295_loop3_31.0.chk
%nprocshared=48
%mem=10GB
%nosave
#b3lyp/svp scf=(tight,noincore) Test 
#IOP(5/87=12) Density=Current Pop=(MK,readradii) iop(6/33=2) iop(6/42=6)

Ng-295_loop3_31.0 

   0   1
   C     87.72900000    77.09900000    57.72000000
   C     86.92900000    75.80900000    57.71000000
   O     85.70900000    75.78900000    57.83000000
   H     88.67700000    76.94200000    57.20500000
   H     87.16500000    77.88100000    57.21200000
   H     87.92200000    77.40000000    58.75000000
   N     87.57900000    74.67900000    57.45000000
   C     86.89900000    73.43900000    57.13000000
   C     86.54900000    72.73900000    58.43000000
   O     87.10900000    72.92900000    59.50000000
   C     87.83900000    72.65900000    56.22000000
   C     87.46900000    71.33900000    55.55000000
   O     86.59900000    70.63900000    56.12000000
   O     87.97900000    70.82900000    54.54000000
   H     88.55900000    74.68900000    57.20000000
   H     86.00900000    73.74900000    56.57000000
   H     88.77900000    72.56900000    56.77000000
   H     88.01900000    73.30900000    55.36000000
   N     85.55900000    71.83900000    58.38000000
   C     85.07900000    71.03900000    59.49000000
   C     86.06900000    69.92900000    59.79000000
   O     85.95900000    69.50900000    60.94000000
   C     83.67900000    70.47900000    59.26000000
   C     83.49900000    69.78900000    57.91000000
   C     82.14900000    69.11900000    57.65000000
   C     81.95900000    67.79900000    58.38000000
   N     80.69900000    67.10900000    58.07000000
   H     85.22900000    71.61900000    57.45000000
   H     85.17900000    71.66900000    60.38000000
   H     83.02900000    71.34900000    59.20000000
   H     83.38900000    69.84900000    60.11000000
   H     84.32900000    69.09900000    57.82000000
   H     83.48900000    70.59900000    57.18000000
   H     81.99900000    68.96900000    56.58000000
   H     81.38900000    69.81900000    58.00000000
   H     81.99900000    68.06900000    59.44000000
   H     82.78900000    67.16900000    58.06000000
   H     80.82900000    66.60900000    57.20000000
   H     80.39900000    66.44900000    58.77000000
   H     79.88900000    67.69900000    57.92000000
   N     86.96900000    69.47900000    58.90000000
   C     88.02900000    68.55900000    59.27000000
   C     89.40900000    69.03900000    58.84000000
   O     90.40900000    68.84900000    59.53000000
   C     87.66900000    67.14900000    58.82000000
   C     87.44900000    66.98900000    57.33000000
   O     87.45900000    65.79900000    56.96000000
   O     87.46900000    67.95900000    56.54000000
   H     86.88900000    69.78900000    57.95000000
   H     88.04900000    68.56900000    60.36000000
   H     86.84900000    66.72900000    59.41000000
   H     88.52900000    66.57900000    59.17000000
   N     89.59900000    69.79900000    57.77000000
   C     90.89900000    70.14900000    57.23000000
   C     91.55900000    69.19900000    56.25000000
   O     92.72900000    68.84900000    56.38000000
   H     88.78900000    69.93900000    57.18000000
   H     91.60900000    70.15900000    58.06000000
   H     90.74900000    71.14900000    56.82000000
   N     90.74900000    68.65900000    55.33000000
   C     91.04900000    67.71900000    54.28000000
   C     90.08900000    67.93900000    53.12000000
   O     88.95900000    68.39900000    53.29000000
   C     90.81900000    66.33900000    54.89000000
   C     91.91900000    65.83900000    55.81000000
   N     93.12900000    65.55900000    55.32000000
   O     91.67900000    65.52900000    56.98000000
   H     89.79900000    69.01900000    55.34000000
   H     92.07900000    67.78900000    53.95000000
   H     90.80900000    65.57900000    54.10000000
   H     89.89900000    66.31900000    55.47000000
   H     93.25900000    65.73900000    54.33000000
   H     93.94900000    65.24900000    55.82000000
   N     90.63900000    67.89900000    51.91000000
   C     90.16900000    68.56900000    50.71000000
   C     88.91900000    67.96900000    50.09000000
   O     88.30900000    68.58900000    49.21000000
   H     91.57900000    67.54900000    51.80000000
   H     91.02900000    68.45900000    50.05000000
   H     89.96900000    69.61900000    50.93000000
   N     88.41900000    66.82900000    50.55000000
   C     87.19900000    66.16900000    50.11000000
   C     86.00900000    66.96900000    50.63000000
   O     86.00900000    67.51900000    51.72000000
   C     87.13900000    64.76900000    50.70000000
   C     86.03900000    63.89900000    50.12000000
   C     85.13900000    63.22900000    50.97000000
   C     86.11900000    63.55900000    48.77000000
   C     84.22900000    62.35900000    50.37000000
   C     85.27900000    62.58900000    48.22000000
   C     84.27900000    61.97900000    49.01000000
   O     83.39900000    61.05900000    48.53000000
   H     88.90900000    66.35900000    51.30000000
   H     87.27900000    66.12900000    49.02000000
   H     87.12900000    64.77900000    51.79000000
   H     88.06900000    64.31900000    50.36000000
   H     85.14900000    63.43900000    52.03000000
   H     86.82900000    64.11900000    48.18000000
   H     83.43900000    61.96900000    50.99000000
   H     85.34900000    62.41900000    47.15000000
   H     83.65900000    60.77900000    47.64000000
   N     84.96900000    66.93900000    49.79000000
   C     83.57900000    67.33900000    49.93000000
   C     82.86900000    66.39900000    50.89000000
   O     83.38900000    65.92900000    51.90000000
   C     83.43900000    68.81900000    50.29000000
   C     82.11900000    69.14900000    50.97000000
   C     83.65900000    69.74900000    49.11000000
   C     81.99900000    70.62900000    51.34000000
   H     85.16900000    66.56900000    48.88000000
   H     83.19900000    67.22900000    48.92000000
   H     84.19900000    69.00900000    51.05000000
   H     81.99900000    68.53900000    51.86000000
   H     81.26900000    68.85900000    50.34000000
   H     84.53900000    69.37900000    48.58000000
   H     82.72900000    69.57900000    48.57000000
   H     83.66900000    70.82900000    49.27000000
   H     81.21900000    70.70900000    52.10000000
   H     82.89900000    71.07900000    51.78000000
   H     81.84900000    71.13900000    50.39000000
   N     81.56900000    66.23900000    50.63000000
   C     80.68900000    65.24900000    51.21000000
   C     79.59900000    64.69900000    50.30000000
   O     79.19900000    63.57900000    50.59000000
   C     80.19900000    65.77900000    52.56000000
   O     79.41900000    66.93900000    52.36000000
   H     81.24900000    66.59900000    49.74000000
   H     81.25900000    64.35900000    51.48000000
   H     81.04900000    66.01900000    53.20000000
   H     79.65900000    65.03900000    53.14000000
   H     79.51900000    67.44900000    53.16000000
   N     79.05900000    65.54900000    49.42000000
   C     77.75900000    65.46900000    48.77000000
   C     76.61900000    65.14900000    49.72000000
   O     76.06900000    64.04900000    49.70000000
   C     77.88900000    64.46900000    47.62000000
   H     79.56900000    66.41900000    49.39000000
   H     77.54900000    66.45900000    48.36000000
   H     76.88900000    64.21900000    47.27000000
   H     78.46900000    64.73900000    46.74000000
   H     78.36900000    63.55900000    47.97000000
   N     76.19900000    66.01900000    50.63000000
   C     76.66900000    67.34900000    50.98000000
   C     75.94900000    68.40900000    50.16000000
   O     74.78900000    68.30900000    49.76000000
   C     76.59900000    67.64900000    52.48000000
   H     75.44900000    65.68900000    51.22000000
   H     77.72900000    67.39900000    50.72000000
   H     77.38900000    68.36900000    52.69000000
   H     75.60900000    68.00900000    52.74000000
   H     76.80900000    66.70900000    53.00000000
   N     76.60900000    69.47900000    49.74000000
   C     77.98900000    69.93900000    49.80000000
   C     78.52900000    70.03900000    48.38000000
   O     79.75900000    70.01900000    48.30000000
   C     78.12900000    71.24900000    50.57000000
   C     78.12900000    71.02900000    52.08000000
   C     78.62900000    72.25900000    52.82000000
   O     79.72900000    72.19900000    53.42000000
   O     77.97900000    73.32900000    52.89000000
   H     75.88900000    70.06900000    49.34000000
   H     78.67900000    69.23900000    50.26000000
   H     77.23900000    71.79900000    50.28000000
   H     79.03900000    71.69900000    50.17000000
   H     78.75900000    70.15900000    52.23000000
   H     77.13900000    70.79900000    52.49000000
   N     77.70900000    70.20900000    47.34000000
   C     78.00900000    70.55900000    45.97000000
   H     79.04900000    70.31500000    45.75300000
   H     77.35700000    69.99800000    45.30000000
   H     77.84800000    71.62700000    45.82400000
   H     76.73900000    70.33900000    47.58000000
  Ca     86.53000000    68.71000000    54.19000000
   O     87.43000000    66.12000000    54.38000000
   H     87.29000000    65.86000000    55.29000000
   H     87.82000000    65.35000000    53.97000000

Ca 1.70



