%chk=Ng-31_loop3_16.0.chk
%nprocshared=48
%mem=10GB
%nosave
#b3lyp/svp scf=(tight,noincore) Test 
#IOP(5/87=12) Density=Current Pop=(MK,readradii) iop(6/33=2) iop(6/42=6)

Ng-31_loop3_16.0 

   0   1
   C     89.22000000    73.57000000    27.79000000
   C     88.43000000    73.97000000    29.03000000
   O     87.65000000    74.92000000    29.10000000
   H     90.21100000    73.22700000    28.08600000
   H     88.69900000    72.76600000    27.27000000
   H     89.31700000    74.43000000    27.12700000
   N     88.67000000    73.26000000    30.14000000
   C     88.26000000    73.74000000    31.44000000
   C     89.06000000    74.92000000    31.97000000
   O     88.47000000    75.74000000    32.67000000
   C     88.40000000    72.52000000    32.35000000
   C     89.80000000    71.92000000    32.38000000
   O     90.57000000    72.02000000    33.36000000
   O     90.07000000    71.16000000    31.42000000
   H     89.33000000    72.49000000    30.10000000
   H     87.19000000    73.94000000    31.52000000
   H     87.73000000    71.73000000    32.04000000
   H     88.12000000    72.83000000    33.36000000
   N     90.35000000    75.14000000    31.68000000
   C     91.17000000    76.23000000    32.16000000
   C     91.46000000    76.14000000    33.65000000
   O     92.35000000    75.47000000    34.18000000
   C     92.43000000    76.25000000    31.30000000
   C     92.11000000    76.41000000    29.82000000
   C     91.32000000    77.66000000    29.43000000
   C     91.02000000    77.86000000    27.94000000
   N     92.23000000    77.82000000    27.11000000
   H     90.82000000    74.40000000    31.18000000
   H     90.63000000    77.16000000    31.94000000
   H     92.84000000    75.26000000    31.44000000
   H     93.12000000    77.03000000    31.62000000
   H     91.68000000    75.50000000    29.40000000
   H     93.12000000    76.56000000    29.44000000
   H     91.86000000    78.53000000    29.82000000
   H     90.33000000    77.65000000    29.88000000
   H     90.45000000    78.78000000    27.87000000
   H     90.44000000    77.06000000    27.49000000
   H     92.26000000    76.92000000    26.65000000
   H     92.05000000    78.51000000    26.39000000
   H     93.09000000    78.06000000    27.59000000
   N     90.54000000    76.70000000    34.45000000
   C     90.50000000    76.60000000    35.89000000
   C     89.33000000    75.77000000    36.41000000
   O     89.15000000    75.63000000    37.62000000
   C     90.30000000    78.00000000    36.46000000
   C     88.99000000    78.63000000    36.03000000
   O     89.00000000    79.21000000    34.92000000
   O     87.97000000    78.47000000    36.73000000
   H     89.71000000    77.06000000    34.00000000
   H     91.39000000    76.14000000    36.32000000
   H     91.18000000    78.58000000    36.17000000
   H     90.27000000    77.91000000    37.55000000
   N     88.53000000    75.10000000    35.57000000
   C     87.52000000    74.16000000    36.00000000
   C     87.86000000    72.69000000    36.23000000
   O     89.04000000    72.35000000    36.26000000
   H     88.63000000    75.38000000    34.61000000
   H     86.73000000    74.14000000    35.24000000
   H     87.12000000    74.58000000    36.92000000
   N     86.97000000    71.72000000    36.43000000
   C     85.52000000    71.73000000    36.45000000
   C     85.03000000    70.44000000    35.82000000
   O     84.97000000    69.44000000    36.52000000
   C     85.01000000    71.90000000    37.87000000
   C     85.52000000    73.17000000    38.55000000
   N     86.43000000    72.99000000    39.51000000
   O     85.12000000    74.30000000    38.31000000
   H     87.37000000    70.86000000    36.79000000
   H     85.23000000    72.58000000    35.82000000
   H     85.23000000    71.06000000    38.53000000
   H     83.92000000    71.90000000    37.92000000
   H     86.52000000    72.11000000    39.99000000
   H     86.82000000    73.82000000    39.93000000
   N     84.59000000    70.35000000    34.56000000
   C     84.75000000    71.45000000    33.63000000
   C     83.58000000    72.41000000    33.44000000
   O     83.77000000    73.60000000    33.20000000
   H     84.23000000    69.47000000    34.21000000
   H     84.79000000    71.05000000    32.62000000
   H     85.75000000    71.88000000    33.65000000
   N     82.37000000    71.91000000    33.67000000
   C     81.26000000    72.77000000    34.04000000
   C     81.70000000    73.47000000    35.31000000
   O     82.32000000    72.91000000    36.21000000
   C     80.01000000    71.89000000    34.13000000
   C     79.34000000    71.52000000    32.83000000
   C     78.80000000    72.54000000    32.04000000
   C     79.34000000    70.21000000    32.36000000
   C     78.06000000    72.19000000    30.91000000
   C     78.64000000    69.87000000    31.19000000
   C     77.90000000    70.85000000    30.50000000
   O     77.10000000    70.50000000    29.45000000
   H     82.23000000    70.92000000    33.83000000
   H     81.13000000    73.60000000    33.34000000
   H     79.30000000    72.35000000    34.82000000
   H     80.20000000    70.97000000    34.68000000
   H     79.06000000    73.55000000    32.32000000
   H     79.89000000    69.48000000    32.94000000
   H     77.57000000    72.90000000    30.26000000
   H     78.66000000    68.89000000    30.74000000
   H     76.76000000    69.61000000    29.55000000
   N     81.41000000    74.77000000    35.39000000
   C     81.70000000    75.66000000    36.49000000
   C     80.69000000    75.62000000    37.63000000
   O     81.06000000    75.78000000    38.79000000
   C     81.89000000    77.06000000    35.92000000
   C     83.30000000    77.13000000    35.35000000
   C     80.76000000    77.73000000    35.14000000
   C     84.55000000    76.73000000    36.13000000
   H     80.79000000    75.12000000    34.67000000
   H     82.68000000    75.38000000    36.88000000
   H     81.97000000    77.70000000    36.80000000
   H     83.35000000    78.16000000    35.00000000
   H     83.20000000    76.49000000    34.47000000
   H     80.52000000    77.09000000    34.29000000
   H     79.89000000    77.62000000    35.79000000
   H     81.03000000    78.77000000    34.94000000
   H     84.46000000    77.10000000    37.15000000
   H     84.72000000    75.66000000    36.19000000
   H     85.34000000    77.32000000    35.67000000
   N     79.43000000    75.33000000    37.30000000
   C     78.35000000    75.21000000    38.26000000
   C     77.77000000    76.51000000    38.80000000
   O     77.75000000    77.51000000    38.09000000
   C     77.24000000    74.39000000    37.62000000
   O     77.62000000    73.10000000    37.18000000
   H     79.11000000    75.04000000    36.39000000
   H     78.66000000    74.60000000    39.11000000
   H     76.88000000    75.01000000    36.80000000
   H     76.46000000    74.28000000    38.38000000
   H     76.78000000    72.73000000    36.92000000
   N     77.16000000    76.42000000    39.98000000
   C     76.52000000    77.64000000    40.44000000
   C     77.39000000    78.68000000    41.14000000
   O     78.47000000    78.30000000    41.59000000
   C     75.45000000    77.09000000    41.37000000
   H     77.17000000    75.61000000    40.59000000
   H     76.00000000    78.15000000    39.64000000
   H     74.97000000    77.89000000    41.92000000
   H     74.70000000    76.59000000    40.74000000
   H     75.85000000    76.43000000    42.15000000
   N     77.03000000    79.96000000    41.09000000
   C     77.73000000    81.11000000    41.64000000
   C     79.00000000    81.46000000    40.89000000
   O     79.97000000    81.94000000    41.47000000
   C     77.87000000    80.91000000    43.15000000
   H     76.15000000    80.21000000    40.67000000
   H     77.04000000    81.94000000    41.49000000
   H     77.85000000    81.93000000    43.54000000
   H     77.10000000    80.22000000    43.50000000
   H     78.80000000    80.41000000    43.41000000
   N     79.05000000    81.21000000    39.58000000
   C     80.23000000    81.36000000    38.76000000
   C     79.94000000    82.10000000    37.46000000
   O     80.75000000    82.93000000    37.05000000
   C     80.89000000    80.04000000    38.38000000
   C     82.29000000    80.34000000    37.85000000
   C     83.33000000    80.00000000    38.91000000
   O     83.53000000    80.79000000    39.86000000
   O     84.10000000    79.04000000    38.70000000
   H     78.25000000    80.79000000    39.14000000
   H     80.97000000    81.97000000    39.30000000
   H     80.38000000    79.51000000    37.58000000
   H     80.92000000    79.38000000    39.25000000
   H     82.41000000    81.40000000    37.60000000
   H     82.47000000    79.79000000    36.93000000
   N     78.78000000    81.89000000    36.84000000
   C     78.37000000    82.56000000    35.62000000
   H     77.50500000    83.19100000    35.82600000
   H     79.18900000    83.17700000    35.25000000
   H     78.10600000    81.81700000    34.86800000
   H     78.23000000    81.12000000    37.21000000
  Ca     86.75000000    79.05000000    38.94000000
   O     86.01000000    81.02000000    37.35000000
   H     85.43000000    80.91000000    36.60000000
   H     86.09000000    81.97000000    37.45000000

Ca 1.70



