%chk=Ng-31_loop3_7.0.chk
%nprocshared=48
%mem=10GB
%nosave
#b3lyp/svp scf=(tight,noincore) Test 
#IOP(5/87=12) Density=Current Pop=(MK,readradii) iop(6/33=2) iop(6/42=6)

Ng-31_loop3_7.0 

   0   1
   C     94.06000000    28.37000000    94.45300000
   C     95.55000000    28.54000000    94.20300000
   O     96.03000000    29.62000000    93.85300000
   H     93.51200000    28.58100000    93.53500000
   H     93.85800000    27.34600000    94.76900000
   H     93.74100000    29.06100000    95.23300000
   N     96.21000000    27.38000000    94.21300000
   C     97.63000000    27.28000000    93.91300000
   C     97.93000000    27.06000000    92.43300000
   O     97.10000000    26.62000000    91.64300000
   C     98.36000000    26.23000000    94.73300000
   C     97.87000000    24.79000000    94.75300000
   O     98.66000000    23.84000000    94.96300000
   O     96.66000000    24.54000000    94.54300000
   H     95.67000000    26.61000000    94.58300000
   H     98.06000000    28.24000000    94.19300000
   H     98.33000000    26.55000000    95.77300000
   H     99.43000000    26.22000000    94.54300000
   N     99.15000000    27.32000000    91.96300000
   C     99.58000000    26.85000000    90.66300000
   C     99.41000000    27.79000000    89.48300000
   O    100.04000000    27.63000000    88.44300000
   C    100.95000000    26.17000000    90.69300000
   C    101.14000000    24.95000000    91.59300000
   C    100.62000000    23.73000000    90.83300000
   C    100.50000000    22.52000000    91.76300000
   N     99.27000000    22.65000000    92.56300000
   H     99.78000000    27.71000000    92.64300000
   H     98.87000000    26.04000000    90.48300000
   H    101.71000000    26.92000000    90.89300000
   H    101.10000000    25.79000000    89.68300000
   H    100.56000000    25.19000000    92.48300000
   H    102.21000000    24.86000000    91.75300000
   H    101.37000000    23.52000000    90.08300000
   H     99.68000000    23.92000000    90.31300000
   H    101.38000000    22.45000000    92.41300000
   H    100.47000000    21.61000000    91.17300000
   H     98.51000000    22.90000000    91.94300000
   H     99.02000000    21.77000000    92.98300000
   H     99.35000000    23.27000000    93.35300000
   N     98.49000000    28.74000000    89.65300000
   C     98.13000000    29.66000000    88.59300000
   C     99.00000000    30.90000000    88.55300000
   O     99.03000000    31.67000000    87.59300000
   C     96.65000000    30.02000000    88.67300000
   C     96.08000000    30.17000000    90.08300000
   O     94.87000000    29.94000000    90.29300000
   O     96.78000000    30.60000000    91.01300000
   H     97.96000000    28.76000000    90.51300000
   H     98.23000000    29.20000000    87.61300000
   H     96.12000000    29.18000000    88.22300000
   H     96.35000000    30.84000000    88.02300000
   N     99.65000000    31.28000000    89.65300000
   C    100.38000000    32.51000000    89.91300000
   C    100.29000000    33.13000000    91.29300000
   O     99.24000000    32.93000000    91.89300000
   H     99.39000000    30.71000000    90.44300000
   H    100.04000000    33.28000000    89.22300000
   H    101.43000000    32.34000000    89.65300000
   N    101.24000000    33.89000000    91.86300000
   C    102.41000000    34.44000000    91.21300000
   C    102.62000000    35.87000000    91.70300000
   O    102.80000000    36.02000000    92.91300000
   C    103.56000000    33.47000000    91.42300000
   C    104.73000000    33.60000000    90.44300000
   N    105.25000000    32.56000000    89.78300000
   O    105.25000000    34.71000000    90.39300000
   H    101.22000000    34.12000000    92.84300000
   H    102.06000000    34.52000000    90.19300000
   H    103.28000000    32.42000000    91.57300000
   H    103.97000000    33.77000000    92.38300000
   H    104.66000000    31.74000000    89.71300000
   H    106.12000000    32.68000000    89.28300000
   N    102.84000000    36.91000000    90.89300000
   C    102.85000000    36.90000000    89.44300000
   C    101.44000000    36.88000000    88.84300000
   O    100.55000000    36.28000000    89.43300000
   H    103.04000000    37.79000000    91.35300000
   H    103.44000000    36.06000000    89.08300000
   H    103.35000000    37.79000000    89.06300000
   N    101.18000000    37.56000000    87.72300000
   C     99.91000000    37.77000000    87.05300000
   C     99.97000000    37.86000000    85.53300000
   O    100.87000000    38.42000000    84.91300000
   C     99.27000000    39.07000000    87.51300000
   C     98.97000000    39.14000000    88.99300000
   C     97.76000000    38.67000000    89.52300000
   C     99.81000000    39.78000000    89.91300000
   C     97.40000000    38.70000000    90.87300000
   C     99.49000000    39.86000000    91.27300000
   C     98.29000000    39.30000000    91.77300000
   O     97.93000000    39.36000000    93.08300000
   H    101.81000000    38.30000000    87.47300000
   H     99.31000000    36.87000000    87.23300000
   H     98.30000000    39.17000000    87.02300000
   H     99.87000000    39.93000000    87.19300000
   H     97.05000000    38.27000000    88.81300000
   H    100.71000000    40.14000000    89.44300000
   H     96.45000000    38.33000000    91.25300000
   H    100.12000000    40.45000000    91.92300000
   H     98.61000000    39.55000000    93.73300000
   N     98.92000000    37.30000000    84.93300000
   C     98.56000000    37.36000000    83.52300000
   C     97.37000000    38.27000000    83.28300000
   O     97.12000000    38.71000000    82.16300000
   C     98.51000000    35.97000000    82.90300000
   C     99.76000000    35.14000000    83.20300000
   C     97.35000000    35.23000000    83.55300000
   C     99.87000000    33.78000000    82.52300000
   H     98.19000000    36.84000000    85.46300000
   H     99.45000000    37.83000000    83.10300000
   H     98.46000000    36.24000000    81.84300000
   H     99.77000000    34.95000000    84.27300000
   H    100.70000000    35.65000000    83.00300000
   H     97.12000000    34.41000000    82.87300000
   H     97.70000000    34.79000000    84.48300000
   H     96.42000000    35.79000000    83.66300000
   H    100.65000000    33.13000000    82.93300000
   H     98.94000000    33.22000000    82.56300000
   H    100.16000000    33.98000000    81.49300000
   N     96.60000000    38.67000000    84.30300000
   C     95.42000000    39.49000000    84.15300000
   C     94.20000000    38.75000000    83.63300000
   O     93.28000000    39.43000000    83.19300000
   C     95.24000000    40.15000000    85.51300000
   O     94.73000000    39.27000000    86.48300000
   H     96.90000000    38.42000000    85.24300000
   H     95.69000000    40.21000000    83.38300000
   H     94.59000000    41.01000000    85.38300000
   H     96.18000000    40.66000000    85.77300000
   H     95.31000000    38.51000000    86.56300000
   N     94.23000000    37.41000000    83.69300000
   C     93.24000000    36.63000000    83.00300000
   C     93.06000000    35.36000000    83.82300000
   O     94.01000000    34.81000000    84.37300000
   C     93.67000000    36.29000000    81.57300000
   H     94.89000000    36.88000000    84.25300000
   H     92.27000000    37.13000000    83.03300000
   H     94.46000000    35.54000000    81.60300000
   H     92.77000000    35.90000000    81.09300000
   H     94.07000000    37.17000000    81.07300000
   N     91.81000000    34.90000000    83.97300000
   C     91.28000000    33.74000000    84.65300000
   C     91.84000000    33.46000000    86.04300000
   O     91.45000000    32.46000000    86.63300000
   C     91.33000000    32.57000000    83.68300000
   H     91.12000000    35.54000000    83.61300000
   H     90.27000000    33.97000000    84.99300000
   H     92.37000000    32.53000000    83.33300000
   H     90.93000000    31.60000000    83.97300000
   H     90.67000000    32.91000000    82.88300000
   N     92.63000000    34.27000000    86.74300000
   C     93.34000000    33.86000000    87.94300000
   C     92.68000000    34.42000000    89.19300000
   O     93.00000000    34.03000000    90.31300000
   C     94.83000000    34.12000000    87.73300000
   C     95.13000000    35.61000000    87.87300000
   C     96.40000000    36.07000000    87.17300000
   O     97.37000000    35.27000000    87.13300000
   O     96.37000000    37.19000000    86.63300000
   H     92.84000000    35.15000000    86.30300000
   H     93.24000000    32.78000000    88.07300000
   H     95.17000000    33.76000000    86.76300000
   H     95.40000000    33.58000000    88.48300000
   H     95.12000000    36.01000000    88.89300000
   H     94.43000000    36.22000000    87.31300000
   N     91.92000000    35.48000000    88.91300000
   C     91.14000000    36.30000000    89.82300000
   H     90.16000000    35.84600000    89.97100000
   H     91.65500000    36.37100000    90.78100000
   H     91.01800000    37.29700000    89.40100000
   H     91.69000000    35.60000000    87.94300000
  Ca     97.20000000    31.96000000    93.17000000
   O     99.22000000    30.43000000    93.93000000
   H     99.91000000    30.24000000    93.30000000
   H     99.66000000    30.93000000    94.62000000

Ca 1.70



