%chk=Ng-31_loop3_47.0.chk
%nprocshared=48
%mem=10GB
%nosave
#b3lyp/svp scf=(tight,noincore) Test 
#IOP(5/87=12) Density=Current Pop=(MK,readradii) iop(6/33=2) iop(6/42=6)

Ng-31_loop3_47.0 

   0   1
   C     95.17000000    73.81000000    16.85000000
   C     95.99000000    73.34000000    18.04000000
   O     95.50000000    72.73000000    18.99000000
   H     94.27400000    74.31800000    17.20500000
   H     95.76300000    74.49900000    16.24900000
   H     94.88400000    72.95100000    16.24300000
   N     97.28000000    73.68000000    18.06000000
   C     98.24000000    73.08000000    18.97000000
   C     98.38000000    74.01000000    20.16000000
   O     98.42000000    73.53000000    21.29000000
   C     99.62000000    72.80000000    18.37000000
   C    100.33000000    73.90000000    17.59000000
   O     99.74000000    74.96000000    17.29000000
   O    101.54000000    73.74000000    17.32000000
   H     97.78000000    74.11000000    17.30000000
   H     97.93000000    72.05000000    19.18000000
   H     99.42000000    72.04000000    17.61000000
   H    100.23000000    72.42000000    19.19000000
   N     98.69000000    75.30000000    19.96000000
   C     99.14000000    76.19000000    21.01000000
   C    100.47000000    75.61000000    21.45000000
   O    101.41000000    75.54000000    20.66000000
   C     99.35000000    77.59000000    20.43000000
   C     98.07000000    78.40000000    20.28000000
   C     98.30000000    79.59000000    19.36000000
   C     96.97000000    80.31000000    19.16000000
   N     97.31000000    81.49000000    18.36000000
   H     98.71000000    75.60000000    19.00000000
   H     98.39000000    76.32000000    21.79000000
   H     99.85000000    77.52000000    19.46000000
   H     99.95000000    78.21000000    21.09000000
   H     97.76000000    78.72000000    21.28000000
   H     97.29000000    77.77000000    19.85000000
   H     98.67000000    79.29000000    18.38000000
   H     99.10000000    80.24000000    19.73000000
   H     96.61000000    80.71000000    20.11000000
   H     96.18000000    79.76000000    18.64000000
   H     97.97000000    82.06000000    18.88000000
   H     97.69000000    81.17000000    17.47000000
   H     96.54000000    82.14000000    18.25000000
   N    100.51000000    75.22000000    22.73000000
   C    101.59000000    74.54000000    23.42000000
   C    101.70000000    73.06000000    23.08000000
   O    102.60000000    72.40000000    23.59000000
   C    101.23000000    74.64000000    24.90000000
   C     99.87000000    74.02000000    25.17000000
   O     99.80000000    72.85000000    25.59000000
   O     98.83000000    74.71000000    25.06000000
   H     99.76000000    75.50000000    23.35000000
   H    102.60000000    74.91000000    23.24000000
   H    101.28000000    75.66000000    25.27000000
   H    102.05000000    74.20000000    25.47000000
   N    100.77000000    72.55000000    22.28000000
   C    100.69000000    71.14000000    21.94000000
   C    101.54000000    70.76000000    20.73000000
   O    102.54000000    71.38000000    20.39000000
   H    100.13000000    73.19000000    21.84000000
   H     99.67000000    71.01000000    21.57000000
   H    100.86000000    70.60000000    22.87000000
   N    101.28000000    69.58000000    20.15000000
   C    100.19000000    68.69000000    20.47000000
   C     99.37000000    68.45000000    19.21000000
   O     99.93000000    68.20000000    18.15000000
   C    100.67000000    67.31000000    20.91000000
   C    101.52000000    67.19000000    22.17000000
   N    101.88000000    65.97000000    22.59000000
   O    101.77000000    68.18000000    22.86000000
   H    101.82000000    69.24000000    19.37000000
   H     99.56000000    69.09000000    21.27000000
   H    101.27000000    66.82000000    20.15000000
   H     99.79000000    66.68000000    21.00000000
   H    101.55000000    65.11000000    22.17000000
   H    102.59000000    65.93000000    23.30000000
   N     98.04000000    68.60000000    19.18000000
   C     97.26000000    69.06000000    20.31000000
   C     96.86000000    67.94000000    21.26000000
   O     96.74000000    68.15000000    22.47000000
   H     97.59000000    68.20000000    18.36000000
   H     96.37000000    69.57000000    19.93000000
   H     97.80000000    69.87000000    20.79000000
   N     96.67000000    66.74000000    20.71000000
   C     96.04000000    65.61000000    21.37000000
   C     96.98000000    65.08000000    22.44000000
   O     98.02000000    64.47000000    22.21000000
   C     95.76000000    64.50000000    20.36000000
   C     94.69000000    64.70000000    19.30000000
   C     93.62000000    65.58000000    19.47000000
   C     94.73000000    64.00000000    18.09000000
   C     92.49000000    65.57000000    18.66000000
   C     93.76000000    64.15000000    17.09000000
   C     92.59000000    64.85000000    17.45000000
   O     91.51000000    64.82000000    16.61000000
   H     96.74000000    66.65000000    19.71000000
   H     95.09000000    65.96000000    21.76000000
   H     95.65000000    63.57000000    20.90000000
   H     96.73000000    64.34000000    19.89000000
   H     93.51000000    66.05000000    20.44000000
   H     95.52000000    63.27000000    17.96000000
   H     91.59000000    66.07000000    19.00000000
   H     93.80000000    63.60000000    16.17000000
   H     91.72000000    64.46000000    15.74000000
   N     96.51000000    65.19000000    23.69000000
   C     97.11000000    64.75000000    24.93000000
   C     96.10000000    64.17000000    25.91000000
   O     96.66000000    63.62000000    26.86000000
   C     97.75000000    65.92000000    25.66000000
   C     99.02000000    66.27000000    24.90000000
   C     96.93000000    67.17000000    26.00000000
   C     99.94000000    67.21000000    25.66000000
   H     95.59000000    65.60000000    23.73000000
   H     97.77000000    63.92000000    24.65000000
   H     98.20000000    65.51000000    26.56000000
   H     98.77000000    66.81000000    23.98000000
   H     99.56000000    65.34000000    24.72000000
   H     95.97000000    66.86000000    26.43000000
   H     97.35000000    67.86000000    26.73000000
   H     96.57000000    67.69000000    25.11000000
   H    100.85000000    67.41000000    25.09000000
   H     99.48000000    68.19000000    25.81000000
   H    100.20000000    66.87000000    26.66000000
   N     94.78000000    64.26000000    25.78000000
   C     93.80000000    63.81000000    26.75000000
   C     92.59000000    64.72000000    26.88000000
   O     92.08000000    65.40000000    25.99000000
   C     93.37000000    62.36000000    26.51000000
   O     94.48000000    61.56000000    26.20000000
   H     94.44000000    64.90000000    25.08000000
   H     94.26000000    63.84000000    27.74000000
   H     92.64000000    62.23000000    25.71000000
   H     92.80000000    61.98000000    27.36000000
   H     94.67000000    61.80000000    25.29000000
   N     92.13000000    64.74000000    28.13000000
   C     90.88000000    65.38000000    28.52000000
   C     90.99000000    66.90000000    28.50000000
   O     92.12000000    67.39000000    28.48000000
   C     90.49000000    64.79000000    29.87000000
   H     92.68000000    64.27000000    28.84000000
   H     90.14000000    64.96000000    27.85000000
   H     89.51000000    65.12000000    30.23000000
   H     90.43000000    63.71000000    29.74000000
   H     91.19000000    65.14000000    30.63000000
   N     89.85000000    67.57000000    28.64000000
   C     89.59000000    68.98000000    28.78000000
   C     90.08000000    69.94000000    27.70000000
   O     89.46000000    71.00000000    27.61000000
   C     89.90000000    69.53000000    30.17000000
   H     89.00000000    67.02000000    28.63000000
   H     88.50000000    69.03000000    28.82000000
   H     90.98000000    69.48000000    30.27000000
   H     89.67000000    70.60000000    30.14000000
   H     89.48000000    68.86000000    30.91000000
   N     91.07000000    69.52000000    26.91000000
   C     91.60000000    70.31000000    25.82000000
   C     90.56000000    70.56000000    24.73000000
   O     90.67000000    71.60000000    24.09000000
   C     92.85000000    69.62000000    25.27000000
   C     94.08000000    69.76000000    26.17000000
   C     94.61000000    71.17000000    26.39000000
   O     94.72000000    72.04000000    25.50000000
   O     95.30000000    71.42000000    27.40000000
   H     91.64000000    68.78000000    27.29000000
   H     91.87000000    71.26000000    26.27000000
   H     93.10000000    70.18000000    24.37000000
   H     92.60000000    68.62000000    24.94000000
   H     94.83000000    69.19000000    25.63000000
   H     94.00000000    69.20000000    27.10000000
   N     89.60000000    69.69000000    24.41000000
   C     88.65000000    69.84000000    23.32000000
   H     87.78100000    70.39800000    23.67000000
   H     89.12100000    70.38000000    22.49900000
   H     88.33400000    68.85600000    22.97500000
   H     89.58000000    68.87000000    25.00000000
  Ca     97.38000000    72.61000000    25.97000000
   O     98.36000000    70.64000000    27.43000000
   H     98.12000000    70.38000000    28.32000000
   H     99.27000000    70.36000000    27.34000000

Ca 1.70



