%chk=Ng-31_loop3_41.0.chk
%nprocshared=48
%mem=10GB
%nosave
#b3lyp/svp scf=(tight,noincore) Test 
#IOP(5/87=12) Density=Current Pop=(MK,readradii) iop(6/33=2) iop(6/42=6)

Ng-31_loop3_41.0 

   0   1
   C     -0.54400000    89.54000000    15.91000000
   C     -0.31400000    88.16000000    16.52000000
   O     -0.99400000    87.65000000    17.41000000
   H     -1.39900000    90.01300000    16.39400000
   H      0.34300000    90.15600000    16.05800000
   H     -0.74200000    89.43800000    14.84300000
   N      0.72600000    87.50000000    16.00000000
   C      1.34600000    86.27000000    16.46000000
   C      1.70600000    86.18000000    17.94000000
   O      1.68600000    85.08000000    18.48000000
   C      2.54600000    86.02000000    15.55000000
   C      3.55600000    87.15000000    15.67000000
   O      4.76600000    86.84000000    15.63000000
   O      3.25600000    88.34000000    15.88000000
   H      1.31600000    88.03000000    15.38000000
   H      0.67600000    85.41000000    16.40000000
   H      2.08600000    85.91000000    14.57000000
   H      3.01600000    85.06000000    15.78000000
   N      2.16600000    87.30000000    18.50000000
   C      2.48600000    87.40000000    19.91000000
   C      3.73600000    86.64000000    20.36000000
   O      4.79600000    86.87000000    19.79000000
   C      2.54600000    88.89000000    20.20000000
   C      1.19600000    89.61000000    20.15000000
   C      1.31600000    91.04000000    20.69000000
   C      0.01600000    91.82000000    20.52000000
   N     -0.82400000    91.55000000    21.70000000
   H      2.20600000    88.15000000    17.96000000
   H      1.62600000    86.95000000    20.41000000
   H      3.14600000    89.42000000    19.46000000
   H      2.85600000    89.09000000    21.23000000
   H      0.37600000    89.08000000    20.63000000
   H      0.97600000    89.65000000    19.08000000
   H      2.03600000    91.67000000    20.18000000
   H      1.53600000    91.06000000    21.75000000
   H     -0.55400000    91.56000000    19.63000000
   H      0.23600000    92.89000000    20.44000000
   H     -0.22400000    91.57000000    22.51000000
   H     -1.58400000    92.20000000    21.83000000
   H     -1.23400000    90.65000000    21.50000000
   N      3.55600000    85.65000000    21.23000000
   C      4.52600000    84.62000000    21.52000000
   C      4.17600000    83.27000000    20.91000000
   O      4.72600000    82.25000000    21.31000000
   C      4.74600000    84.48000000    23.03000000
   C      3.57600000    84.17000000    23.95000000
   O      3.78600000    83.32000000    24.84000000
   O      2.46600000    84.70000000    23.75000000
   H      2.60600000    85.49000000    21.55000000
   H      5.48600000    84.84000000    21.06000000
   H      5.07600000    85.49000000    23.28000000
   H      5.48600000    83.70000000    23.22000000
   N      3.39600000    83.23000000    19.83000000
   C      2.92600000    82.08000000    19.08000000
   C      3.93600000    81.08000000    18.56000000
   O      5.02600000    81.45000000    18.13000000
   H      3.06600000    84.12000000    19.48000000
   H      2.24600000    82.30000000    18.26000000
   H      2.26600000    81.58000000    19.79000000
   N      3.55600000    79.80000000    18.44000000
   C      2.38600000    79.10000000    18.93000000
   C      1.85600000    78.20000000    17.83000000
   O      2.18600000    77.02000000    17.73000000
   C      2.88600000    78.21000000    20.07000000
   C      3.28600000    78.87000000    21.38000000
   N      2.35600000    79.60000000    22.00000000
   O      4.34600000    78.73000000    21.99000000
   H      4.24600000    79.19000000    18.01000000
   H      1.60600000    79.75000000    19.31000000
   H      3.72600000    77.62000000    19.70000000
   H      2.02600000    77.61000000    20.34000000
   H      1.37600000    79.66000000    21.76000000
   H      2.57600000    79.85000000    22.95000000
   N      1.14600000    78.74000000    16.83000000
   C      0.77600000    80.13000000    16.67000000
   C     -0.25400000    80.72000000    17.63000000
   O     -0.20400000    81.88000000    18.02000000
   H      0.71600000    78.18000000    16.11000000
   H      0.20600000    80.16000000    15.74000000
   H      1.65600000    80.77000000    16.65000000
   N     -1.13400000    79.85000000    18.14000000
   C     -2.18400000    80.06000000    19.11000000
   C     -1.60400000    80.21000000    20.51000000
   O     -0.40400000    79.94000000    20.62000000
   C     -3.33400000    79.10000000    18.86000000
   C     -3.99400000    79.27000000    17.51000000
   C     -5.11400000    80.10000000    17.35000000
   C     -3.36400000    78.90000000    16.32000000
   C     -5.64400000    80.46000000    16.11000000
   C     -3.91400000    79.18000000    15.06000000
   C     -5.04400000    80.02000000    14.91000000
   O     -5.60400000    80.26000000    13.70000000
   H     -1.02400000    78.87000000    17.92000000
   H     -2.53400000    81.06000000    18.86000000
   H     -4.06400000    79.18000000    19.66000000
   H     -2.91400000    78.09000000    18.91000000
   H     -5.60400000    80.35000000    18.29000000
   H     -2.40400000    78.42000000    16.30000000
   H     -6.58400000    80.99000000    16.05000000
   H     -3.46400000    78.75000000    14.18000000
   H     -5.13400000    79.87000000    12.96000000
   N     -2.40400000    80.66000000    21.47000000
   C     -1.99400000    81.15000000    22.77000000
   C     -2.58400000    80.43000000    23.97000000
   O     -2.10400000    80.58000000    25.09000000
   C     -2.12400000    82.67000000    22.88000000
   C     -1.42400000    83.40000000    21.74000000
   C     -3.61400000    83.02000000    22.89000000
   C      0.10600000    83.31000000    21.71000000
   H     -3.36400000    80.85000000    21.20000000
   H     -0.93400000    80.95000000    22.91000000
   H     -1.66400000    83.02000000    23.80000000
   H     -1.63400000    84.45000000    21.93000000
   H     -1.94400000    83.21000000    20.80000000
   H     -3.66400000    84.11000000    22.93000000
   H     -4.05400000    82.62000000    21.98000000
   H     -4.09400000    82.66000000    23.79000000
   H      0.52600000    83.86000000    20.88000000
   H      0.51600000    83.60000000    22.67000000
   H      0.28600000    82.26000000    21.48000000
   N     -3.55400000    79.55000000    23.73000000
   C     -4.12400000    78.72000000    24.77000000
   C     -5.04400000    79.50000000    25.70000000
   O     -5.91400000    80.24000000    25.27000000
   C     -4.76400000    77.44000000    24.24000000
   O     -3.89400000    76.71000000    23.40000000
   H     -4.04400000    79.73000000    22.86000000
   H     -3.32400000    78.34000000    25.41000000
   H     -5.63400000    77.67000000    23.63000000
   H     -4.99400000    76.83000000    25.11000000
   H     -4.25400000    75.90000000    23.02000000
   N     -4.93400000    79.16000000    26.99000000
   C     -5.78400000    79.75000000    28.01000000
   C     -5.32400000    81.11000000    28.51000000
   O     -4.15400000    81.48000000    28.41000000
   C     -5.88400000    78.66000000    29.07000000
   H     -4.32400000    78.42000000    27.29000000
   H     -6.80400000    79.92000000    27.66000000
   H     -4.86400000    78.41000000    29.36000000
   H     -6.49400000    79.03000000    29.90000000
   H     -6.24400000    77.71000000    28.67000000
   N     -6.23400000    81.90000000    29.08000000
   C     -5.98400000    83.15000000    29.77000000
   C     -5.42400000    84.25000000    28.88000000
   O     -4.45400000    84.90000000    29.28000000
   C     -5.28400000    82.94000000    31.12000000
   H     -7.17400000    81.57000000    29.24000000
   H     -6.99400000    83.49000000    30.00000000
   H     -5.91400000    82.22000000    31.65000000
   H     -4.25400000    82.60000000    31.08000000
   H     -5.21400000    83.90000000    31.62000000
   N     -6.05400000    84.60000000    27.76000000
   C     -5.67400000    85.74000000    26.96000000
   C     -6.75400000    86.23000000    26.00000000
   O     -6.94400000    87.43000000    25.86000000
   C     -4.44400000    85.40000000    26.11000000
   C     -3.65400000    86.70000000    26.00000000
   C     -2.43400000    86.54000000    25.12000000
   O     -2.55400000    86.77000000    23.90000000
   O     -1.30400000    86.28000000    25.59000000
   H     -6.87400000    84.08000000    27.48000000
   H     -5.46400000    86.57000000    27.63000000
   H     -4.69400000    85.00000000    25.13000000
   H     -3.75400000    84.69000000    26.55000000
   H     -3.30400000    86.94000000    27.01000000
   H     -4.33400000    87.43000000    25.55000000
   N     -7.50400000    85.32000000    25.36000000
   C     -8.64400000    85.50000000    24.48000000
   H     -9.44500000    86.00300000    25.02200000
   H     -8.35000000    86.10600000    23.62300000
   H     -8.99500000    84.52700000    24.13500000
   H     -7.38400000    84.35000000    25.61000000
  Ca      1.12000000    86.37000000    24.93000000
   O      1.09000000    84.13000000    26.37000000
   H      1.98000000    83.89000000    26.61000000
   H      0.54000000    83.46000000    26.77000000

Ca 1.70



