%chk=Ng-31_loop3_12.0.chk
%nprocshared=48
%mem=10GB
%nosave
#b3lyp/svp scf=(tight,noincore) Test 
#IOP(5/87=12) Density=Current Pop=(MK,readradii) iop(6/33=2) iop(6/42=6)

Ng-31_loop3_12.0 

   0   1
   C     62.19000000    59.53000000    36.57000000
   C     62.52000000    58.26000000    37.36000000
   O     61.87000000    57.23000000    37.22000000
   H     61.31500000    60.01200000    37.00600000
   H     63.03800000    60.21400000    36.61000000
   H     61.98100000    59.26900000    35.53200000
   N     63.65000000    58.24000000    38.07000000
   C     64.17000000    57.05000000    38.71000000
   C     63.66000000    57.15000000    40.14000000
   O     62.99000000    56.22000000    40.59000000
   C     65.68000000    56.87000000    38.57000000
   C     66.61000000    58.05000000    38.81000000
   O     66.14000000    59.02000000    39.44000000
   O     67.78000000    58.06000000    38.37000000
   H     64.12000000    59.09000000    38.35000000
   H     63.66000000    56.20000000    38.26000000
   H     65.96000000    56.44000000    37.61000000
   H     66.00000000    56.08000000    39.26000000
   N     63.92000000    58.26000000    40.83000000
   C     63.40000000    58.56000000    42.15000000
   C     64.05000000    57.59000000    43.14000000
   O     65.25000000    57.68000000    43.38000000
   C     63.70000000    60.00000000    42.56000000
   C     62.83000000    60.95000000    41.74000000
   C     62.95000000    62.38000000    42.27000000
   C     62.13000000    63.39000000    41.48000000
   N     62.74000000    63.71000000    40.17000000
   H     64.52000000    58.94000000    40.40000000
   H     62.34000000    58.34000000    42.28000000
   H     64.73000000    60.26000000    42.32000000
   H     63.66000000    60.25000000    43.62000000
   H     61.80000000    60.63000000    41.93000000
   H     63.04000000    60.90000000    40.68000000
   H     63.99000000    62.70000000    42.38000000
   H     62.59000000    62.25000000    43.29000000
   H     62.13000000    64.27000000    42.12000000
   H     61.12000000    62.99000000    41.37000000
   H     62.89000000    62.85000000    39.66000000
   H     62.14000000    64.35000000    39.68000000
   H     63.60000000    64.18000000    40.40000000
   N     63.24000000    56.68000000    43.68000000
   C     63.56000000    55.65000000    44.64000000
   C     64.18000000    54.43000000    43.98000000
   O     64.96000000    53.70000000    44.58000000
   C     62.33000000    55.37000000    45.49000000
   C     61.54000000    56.53000000    46.08000000
   O     62.10000000    57.37000000    46.82000000
   O     60.31000000    56.38000000    45.95000000
   H     62.33000000    56.57000000    43.25000000
   H     64.24000000    56.07000000    45.39000000
   H     62.71000000    54.88000000    46.38000000
   H     61.74000000    54.65000000    44.91000000
   N     63.92000000    54.30000000    42.67000000
   C     64.50000000    53.38000000    41.72000000
   C     66.02000000    53.38000000    41.79000000
   O     66.60000000    54.32000000    42.33000000
   H     63.07000000    54.72000000    42.33000000
   H     64.13000000    53.61000000    40.72000000
   H     64.18000000    52.36000000    41.95000000
   N     66.72000000    52.36000000    41.29000000
   C     66.20000000    51.17000000    40.66000000
   C     67.01000000    50.65000000    39.48000000
   O     68.05000000    50.01000000    39.60000000
   C     65.97000000    50.06000000    41.68000000
   C     65.22000000    48.84000000    41.16000000
   N     64.50000000    48.15000000    42.04000000
   O     65.16000000    48.45000000    39.99000000
   H     67.72000000    52.47000000    41.29000000
   H     65.20000000    51.38000000    40.29000000
   H     65.49000000    50.45000000    42.58000000
   H     66.94000000    49.79000000    42.11000000
   H     64.57000000    48.42000000    43.01000000
   H     64.05000000    47.33000000    41.65000000
   N     66.49000000    50.79000000    38.25000000
   C     65.53000000    51.83000000    37.93000000
   C     64.11000000    51.29000000    37.85000000
   O     63.26000000    52.05000000    37.38000000
   H     66.96000000    50.30000000    37.50000000
   H     65.77000000    52.24000000    36.95000000
   H     65.64000000    52.64000000    38.65000000
   N     63.76000000    50.09000000    38.32000000
   C     62.35000000    49.73000000    38.33000000
   C     61.55000000    50.48000000    39.38000000
   O     62.06000000    50.79000000    40.46000000
   C     62.18000000    48.22000000    38.49000000
   C     62.44000000    47.47000000    37.20000000
   C     61.27000000    47.16000000    36.50000000
   C     63.70000000    47.24000000    36.64000000
   C     61.34000000    46.59000000    35.22000000
   C     63.78000000    46.61000000    35.39000000
   C     62.61000000    46.33000000    34.66000000
   O     62.64000000    45.70000000    33.45000000
   H     64.45000000    49.53000000    38.80000000
   H     62.02000000    49.91000000    37.31000000
   H     61.14000000    48.06000000    38.78000000
   H     62.93000000    47.92000000    39.22000000
   H     60.27000000    47.30000000    36.88000000
   H     64.62000000    47.53000000    37.13000000
   H     60.47000000    46.31000000    34.65000000
   H     64.73000000    46.48000000    34.91000000
   H     63.58000000    45.58000000    33.29000000
   N     60.33000000    50.84000000    39.00000000
   C     59.47000000    51.61000000    39.88000000
   C     58.76000000    50.73000000    40.90000000
   O     58.29000000    49.66000000    40.52000000
   C     58.56000000    52.61000000    39.18000000
   C     59.31000000    53.66000000    38.36000000
   C     57.47000000    51.89000000    38.39000000
   C     58.42000000    54.81000000    37.88000000
   H     59.94000000    50.46000000    38.15000000
   H     60.17000000    52.27000000    40.40000000
   H     58.00000000    53.18000000    39.93000000
   H     59.89000000    53.28000000    37.53000000
   H     60.11000000    54.13000000    38.93000000
   H     57.10000000    51.04000000    38.96000000
   H     56.69000000    52.60000000    38.10000000
   H     57.88000000    51.51000000    37.45000000
   H     57.74000000    54.32000000    37.19000000
   H     57.83000000    55.34000000    38.63000000
   H     59.07000000    55.52000000    37.37000000
   N     58.73000000    51.21000000    42.15000000
   C     57.88000000    50.70000000    43.21000000
   C     56.39000000    50.86000000    42.97000000
   O     55.95000000    50.98000000    41.83000000
   C     58.29000000    49.32000000    43.70000000
   O     58.10000000    48.23000000    42.82000000
   H     59.35000000    52.00000000    42.28000000
   H     57.99000000    51.41000000    44.02000000
   H     57.89000000    49.00000000    44.67000000
   H     59.37000000    49.31000000    43.85000000
   H     58.27000000    48.56000000    41.94000000
   N     55.62000000    50.80000000    44.06000000
   C     54.17000000    50.86000000    44.01000000
   C     53.64000000    52.28000000    44.16000000
   O     54.32000000    53.12000000    44.74000000
   C     53.53000000    49.97000000    45.08000000
   H     56.06000000    50.96000000    44.95000000
   H     53.83000000    50.66000000    43.00000000
   H     53.78000000    48.91000000    45.05000000
   H     53.80000000    50.29000000    46.09000000
   H     52.45000000    50.04000000    45.01000000
   N     52.44000000    52.55000000    43.63000000
   C     51.80000000    53.83000000    43.48000000
   C     52.36000000    54.76000000    42.41000000
   O     51.67000000    55.69000000    41.99000000
   C     51.67000000    54.54000000    44.83000000
   H     51.99000000    51.86000000    43.04000000
   H     50.79000000    53.61000000    43.12000000
   H     50.97000000    55.38000000    44.85000000
   H     51.41000000    53.83000000    45.61000000
   H     52.54000000    55.09000000    45.19000000
   N     53.63000000    54.52000000    42.08000000
   C     54.46000000    55.26000000    41.15000000
   C     53.83000000    55.34000000    39.77000000
   O     53.81000000    56.40000000    39.16000000
   C     55.87000000    54.65000000    41.15000000
   C     57.01000000    55.60000000    41.50000000
   C     57.02000000    55.97000000    42.97000000
   O     57.93000000    55.50000000    43.69000000
   O     56.19000000    56.75000000    43.49000000
   H     53.99000000    53.68000000    42.51000000
   H     54.51000000    56.27000000    41.55000000
   H     56.09000000    54.31000000    40.14000000
   H     55.90000000    53.79000000    41.82000000
   H     56.95000000    56.55000000    40.97000000
   H     58.00000000    55.21000000    41.25000000
   N     53.18000000    54.27000000    39.29000000
   C     52.31000000    54.28000000    38.13000000
   H     51.42600000    54.88100000    38.34400000
   H     52.84200000    54.70700000    37.28000000
   H     52.00600000    53.26000000    37.89400000
   H     53.26000000    53.42000000    39.82000000
  Ca     57.82000000    56.55000000    46.02000000
   O     55.87000000    54.87000000    45.97000000
   H     55.17000000    54.86000000    46.63000000
   H     55.52000000    54.36000000    45.24000000

Ca 1.70



