%chk=loop2.cluster118.chk
%nprocshared=20
%mem=10GB
%nosave
#b3lyp/svp scf=(tight,noincore,xqc) Test 
#IOP(5/87=12) Density=Current Pop=(MK,readradii) iop(6/33=2) iop(6/42=6)

loop2.cluster118 

   -2  1 
   C     59.17000000    53.17000000    16.83000000
   C     60.12000000    53.36000000    15.66000000
   O     61.04000000    54.14000000    15.92000000
   H     58.21200000    52.80200000    16.46300000
   H     59.59300000    52.44800000    17.52800000
   H     59.02200000    54.12300000    17.33700000
   N     59.91000000    52.71000000    14.52000000
   C     60.88000000    52.40000000    13.49000000
   C     61.18000000    53.55000000    12.54000000
   O     60.34000000    54.43000000    12.35000000
   C     60.25000000    51.25000000    12.70000000
   C     61.18000000    50.76000000    11.60000000
   O     62.39000000    50.68000000    11.90000000
   O     60.73000000    50.17000000    10.60000000
   H     59.07000000    52.15000000    14.40000000
   H     61.85000000    52.10000000    13.88000000
   H     59.33000000    51.65000000    12.26000000
   H     59.97000000    50.46000000    13.40000000
   N     62.38000000    53.55000000    11.95000000
   C     62.78000000    54.36000000    10.82000000
   C     63.50000000    53.65000000     9.69000000
   O     63.93000000    54.38000000     8.80000000
   C     63.40000000    55.64000000    11.38000000
   H     62.95000000    52.74000000    12.14000000
   H     61.86000000    54.71000000    10.35000000
   H     63.75000000    56.18000000    10.50000000
   H     62.65000000    56.17000000    11.96000000
   H     64.16000000    55.34000000    12.10000000
   N     63.63000000    52.32000000     9.63000000
   C     64.40000000    51.63000000     8.61000000
   C     63.93000000    50.26000000     8.14000000
   O     64.60000000    49.67000000     7.29000000
   C     65.87000000    51.62000000     9.02000000
   C     66.20000000    51.21000000    10.45000000
   O     65.45000000    50.39000000    11.02000000
   O     67.24000000    51.68000000    10.95000000
   H     63.23000000    51.86000000    10.42000000
   H     64.36000000    52.24000000     7.71000000
   H     66.48000000    52.47000000     8.71000000
   H     66.40000000    50.83000000     8.49000000
   N     62.84000000    49.70000000     8.66000000
   C     62.34000000    48.42000000     8.19000000
   C     63.13000000    47.25000000     8.77000000
   O     62.61000000    46.15000000     8.60000000
   H     62.17000000    50.13000000     9.28000000
   H     62.42000000    48.48000000     7.11000000
   H     61.30000000    48.32000000     8.50000000
   N     64.18000000    47.36000000     9.58000000
   C     65.03000000    46.24000000     9.95000000
   C     64.51000000    45.26000000    10.99000000
   O     65.25000000    44.45000000    11.53000000
   C     66.43000000    46.70000000    10.36000000
   C     66.60000000    47.34000000    11.73000000
   N     67.77000000    47.93000000    11.98000000
   O     65.69000000    47.47000000    12.54000000
   H     64.52000000    48.29000000     9.79000000
   H     65.23000000    45.62000000     9.08000000
   H     66.80000000    47.44000000     9.66000000
   H     67.20000000    45.93000000    10.39000000
   H     68.46000000    48.01000000    11.25000000
   H     67.96000000    48.25000000    12.92000000
   N     63.20000000    45.32000000    11.28000000
   C     62.47000000    44.40000000    12.13000000
   C     62.74000000    44.40000000    13.63000000
   O     62.32000000    43.50000000    14.35000000
   H     62.69000000    46.02000000    10.76000000
   H     62.59000000    43.39000000    11.74000000
   H     61.43000000    44.70000000    12.00000000
   N     63.61000000    45.32000000    14.05000000
   C     64.22000000    45.39000000    15.36000000
   C     64.34000000    46.83000000    15.86000000
   O     64.43000000    47.76000000    15.07000000
   C     65.67000000    44.91000000    15.40000000
   C     65.71000000    43.39000000    15.41000000
   O     66.44000000    45.34000000    14.30000000
   H     64.03000000    45.98000000    13.41000000
   H     63.64000000    44.91000000    16.15000000
   H     66.20000000    45.30000000    16.27000000
   H     66.42000000    46.28000000    14.12000000
   H     65.33000000    43.18000000    16.41000000
   H     65.00000000    43.00000000    14.67000000
   H     66.70000000    42.97000000    15.22000000
   N     64.38000000    47.02000000    17.18000000
   C     64.78000000    48.27000000    17.78000000
   C     66.29000000    48.41000000    17.73000000
   O     67.05000000    47.65000000    18.33000000
   C     64.21000000    48.51000000    19.18000000
   C     62.75000000    48.08000000    19.31000000
   C     64.23000000    50.02000000    19.43000000
   C     61.99000000    48.09000000    20.63000000
   H     64.29000000    46.26000000    17.85000000
   H     64.31000000    49.07000000    17.20000000
   H     64.87000000    48.14000000    19.96000000
   H     62.77000000    47.00000000    19.13000000
   H     62.14000000    48.47000000    18.50000000
   H     63.66000000    50.62000000    18.73000000
   H     63.79000000    50.32000000    20.38000000
   H     65.20000000    50.52000000    19.37000000
   H     61.61000000    49.08000000    20.88000000
   H     61.06000000    47.52000000    20.56000000
   H     62.62000000    47.72000000    21.44000000
   N     66.83000000    49.36000000    16.95000000
   C     68.17000000    49.90000000    17.01000000
   C     68.39000000    50.64000000    18.32000000
   O     67.46000000    51.16000000    18.93000000
   C     68.39000000    50.80000000    15.80000000
   C     67.90000000    50.10000000    14.53000000
   O     66.68000000    50.04000000    14.26000000
   O     68.79000000    49.60000000    13.81000000
   H     66.20000000    49.94000000    16.42000000
   H     68.88000000    49.08000000    16.85000000
   H     69.42000000    51.15000000    15.75000000
   H     67.80000000    51.70000000    15.95000000
   N     69.65000000    50.86000000    18.70000000
   C     70.05000000    51.75000000    19.77000000
   C     69.80000000    53.23000000    19.49000000
   O     69.13000000    53.92000000    20.26000000
   C     71.47000000    51.46000000    20.25000000
   C     71.76000000    52.21000000    21.53000000
   C     72.97000000    52.92000000    21.61000000
   C     70.94000000    51.95000000    22.63000000
   C     73.23000000    53.52000000    22.85000000
   C     71.26000000    52.57000000    23.84000000
   C     72.38000000    53.40000000    23.95000000
   H     70.47000000    50.50000000    18.24000000
   H     69.32000000    51.53000000    20.55000000
   H     72.22000000    51.79000000    19.54000000
   H     71.69000000    50.43000000    20.51000000
   H     73.59000000    53.10000000    20.74000000
   H     70.04000000    51.35000000    22.52000000
   H     74.09000000    54.18000000    22.85000000
   H     70.65000000    52.39000000    24.71000000
   H     72.51000000    53.94000000    24.88000000
   N     70.24000000    53.76000000    18.36000000
   C     70.07000000    55.19000000    18.18000000
   C     68.64000000    55.59000000    17.84000000
   O     68.25000000    56.75000000    17.95000000
   C     71.09000000    55.64000000    17.14000000
   C     72.12000000    54.52000000    17.19000000
   C     71.14000000    53.35000000    17.29000000
   H     70.32000000    55.70000000    19.11000000
   H     70.75000000    55.61000000    16.11000000
   H     71.44000000    56.60000000    17.52000000
   H     72.71000000    54.44000000    16.27000000
   H     72.73000000    54.53000000    18.09000000
   H     70.58000000    53.31000000    16.36000000
   H     71.64000000    52.40000000    17.46000000
   N     67.90000000    54.57000000    17.40000000
   C     66.45000000    54.59000000    17.40000000
   C     65.81000000    54.76000000    18.77000000
   O     65.02000000    55.69000000    18.92000000
   C     65.89000000    53.37000000    16.67000000
   C     64.46000000    53.51000000    16.17000000
   C     64.25000000    52.39000000    15.16000000
   O     64.46000000    52.44000000    13.93000000
   O     63.90000000    51.28000000    15.61000000
   H     68.30000000    53.68000000    17.17000000
   H     66.24000000    55.48000000    16.81000000
   H     65.90000000    52.52000000    17.36000000
   H     66.59000000    53.27000000    15.84000000
   H     64.45000000    54.46000000    15.62000000
   H     63.79000000    53.43000000    17.02000000
   N     66.15000000    53.92000000    19.74000000
   C     65.77000000    54.06000000    21.13000000
   H     64.73600000    53.74000000    21.25700000
   H     66.42000000    53.44100000    21.74900000
   H     65.86700000    55.10300000    21.43000000
   H     66.87000000    53.24000000    19.53000000
  Ca     64.24000000    49.76000000    13.40000000
   O     61.96000000    49.47000000    15.16000000
   H     62.17000000    50.27000000    15.64000000
   H     61.08000000    49.24000000    15.45000000
   O     62.37000000    48.07000000    12.46000000
   H     61.98000000    48.66000000    11.81000000
   H     61.63000000    47.65000000    12.89000000

Ca 1.00



