%chk=loop2.cluster7.chk
%nprocshared=20
%mem=10GB
%nosave
#b3lyp/svp scf=(tight,noincore,xqc) Test 
#IOP(5/87=12) Density=Current Pop=(MK,readradii) iop(6/33=2) iop(6/42=6)

loop2.cluster7 

   -2  1 
   C     50.94000000    45.35000000    15.76000000
   C     52.23000000    45.12000000    14.99000000
   O     53.21000000    45.82000000    15.20000000
   H     50.13400000    44.78000000    15.29700000
   H     51.06900000    45.02300000    16.79200000
   H     50.69000000    46.41100000    15.74300000
   N     52.33000000    44.09000000    14.14000000
   C     53.57000000    43.72000000    13.47000000
   C     53.75000000    44.39000000    12.12000000
   O     52.93000000    44.31000000    11.20000000
   C     53.70000000    42.20000000    13.35000000
   C     55.06000000    41.69000000    12.91000000
   O     56.11000000    42.36000000    12.98000000
   O     55.05000000    40.49000000    12.54000000
   H     51.50000000    43.57000000    13.93000000
   H     54.35000000    44.16000000    14.09000000
   H     53.00000000    41.75000000    12.65000000
   H     53.51000000    41.67000000    14.28000000
   N     54.93000000    45.00000000    12.00000000
   C     55.43000000    45.79000000    10.89000000
   C     56.43000000    45.06000000    10.00000000
   O     57.02000000    45.69000000     9.13000000
   C     55.91000000    47.15000000    11.41000000
   H     55.56000000    45.00000000    12.78000000
   H     54.66000000    46.16000000    10.20000000
   H     55.05000000    47.70000000    11.81000000
   H     56.57000000    46.96000000    12.25000000
   H     56.39000000    47.79000000    10.66000000
   N     56.71000000    43.79000000    10.29000000
   C     57.56000000    43.01000000     9.42000000
   C     56.86000000    41.86000000     8.71000000
   O     57.48000000    41.16000000     7.91000000
   C     58.84000000    42.55000000    10.12000000
   C     59.67000000    43.61000000    10.83000000
   O     59.66000000    43.57000000    12.08000000
   O     60.58000000    44.21000000    10.22000000
   H     56.17000000    43.29000000    10.99000000
   H     57.85000000    43.53000000     8.51000000
   H     59.50000000    42.22000000     9.32000000
   H     58.53000000    41.78000000    10.82000000
   N     55.59000000    41.63000000     9.07000000
   C     54.88000000    40.41000000     8.75000000
   C     55.62000000    39.17000000     9.21000000
   O     55.65000000    38.18000000     8.48000000
   H     55.20000000    42.19000000     9.81000000
   H     54.74000000    40.32000000     7.67000000
   H     53.94000000    40.34000000     9.31000000
   N     56.27000000    39.16000000    10.38000000
   C     57.30000000    38.21000000    10.75000000
   C     56.79000000    37.35000000    11.89000000
   O     57.16000000    36.18000000    11.96000000
   C     58.58000000    38.95000000    11.15000000
   C     58.67000000    39.37000000    12.61000000
   N     59.11000000    38.46000000    13.48000000
   O     58.30000000    40.43000000    13.10000000
   H     55.97000000    39.87000000    11.03000000
   H     57.45000000    37.41000000    10.02000000
   H     58.76000000    39.78000000    10.47000000
   H     59.38000000    38.25000000    10.92000000
   H     59.56000000    37.57000000    13.31000000
   H     59.12000000    38.76000000    14.45000000
   N     55.96000000    37.90000000    12.78000000
   C     55.36000000    37.20000000    13.90000000
   C     55.87000000    37.49000000    15.30000000
   O     55.27000000    36.90000000    16.21000000
   H     55.70000000    38.87000000    12.64000000
   H     55.50000000    36.17000000    13.58000000
   H     54.35000000    37.62000000    13.89000000
   N     56.85000000    38.38000000    15.45000000
   C     57.38000000    38.73000000    16.75000000
   C     57.53000000    40.23000000    16.98000000
   O     57.64000000    41.02000000    16.05000000
   C     58.81000000    38.20000000    16.86000000
   C     58.90000000    36.74000000    16.43000000
   O     59.75000000    38.96000000    16.14000000
   H     57.15000000    38.94000000    14.66000000
   H     56.89000000    38.23000000    17.57000000
   H     59.07000000    38.34000000    17.91000000
   H     60.64000000    38.60000000    16.24000000
   H     58.24000000    36.08000000    17.01000000
   H     58.85000000    36.60000000    15.35000000
   H     59.92000000    36.36000000    16.52000000
   N     57.38000000    40.64000000    18.24000000
   C     57.46000000    42.05000000    18.58000000
   C     58.94000000    42.34000000    18.78000000
   O     59.56000000    41.75000000    19.66000000
   C     56.64000000    42.45000000    19.80000000
   C     55.15000000    42.50000000    19.47000000
   C     57.09000000    43.76000000    20.44000000
   C     54.11000000    42.32000000    20.58000000
   H     57.28000000    39.97000000    18.99000000
   H     57.10000000    42.72000000    17.80000000
   H     56.68000000    41.70000000    20.59000000
   H     54.94000000    41.70000000    18.77000000
   H     54.81000000    43.37000000    18.90000000
   H     58.12000000    43.64000000    20.78000000
   H     57.15000000    44.62000000    19.77000000
   H     56.55000000    44.04000000    21.34000000
   H     54.08000000    43.27000000    21.12000000
   H     53.08000000    42.12000000    20.29000000
   H     54.34000000    41.51000000    21.27000000
   N     59.48000000    43.35000000    18.10000000
   C     60.88000000    43.74000000    18.16000000
   C     60.98000000    45.14000000    18.74000000
   O     60.01000000    45.88000000    18.81000000
   C     61.59000000    43.62000000    16.82000000
   C     61.06000000    44.60000000    15.78000000
   O     61.72000000    45.63000000    15.52000000
   O     59.95000000    44.30000000    15.28000000
   H     58.90000000    43.96000000    17.54000000
   H     61.42000000    43.13000000    18.88000000
   H     61.54000000    42.61000000    16.39000000
   H     62.62000000    43.88000000    17.03000000
   N     62.14000000    45.53000000    19.29000000
   C     62.21000000    46.70000000    20.13000000
   C     61.99000000    48.08000000    19.51000000
   O     61.27000000    48.89000000    20.09000000
   C     63.40000000    46.59000000    21.08000000
   C     63.52000000    47.70000000    22.10000000
   C     64.40000000    48.76000000    21.84000000
   C     62.87000000    47.58000000    23.33000000
   C     64.67000000    49.58000000    22.94000000
   C     62.97000000    48.58000000    24.31000000
   C     63.98000000    49.53000000    24.16000000
   H     62.87000000    44.83000000    19.26000000
   H     61.40000000    46.53000000    20.84000000
   H     64.29000000    46.74000000    20.46000000
   H     63.48000000    45.61000000    21.54000000
   H     64.98000000    48.86000000    20.93000000
   H     62.20000000    46.75000000    23.49000000
   H     65.41000000    50.35000000    22.79000000
   H     62.40000000    48.48000000    25.22000000
   H     64.10000000    50.31000000    24.90000000
   N     62.47000000    48.48000000    18.34000000
   C     62.00000000    49.58000000    17.52000000
   C     60.51000000    49.51000000    17.19000000
   O     59.98000000    50.57000000    16.88000000
   C     62.91000000    49.63000000    16.29000000
   C     64.12000000    48.84000000    16.78000000
   C     63.48000000    47.73000000    17.61000000
   H     62.21000000    50.48000000    18.09000000
   H     62.49000000    49.17000000    15.40000000
   H     63.21000000    50.66000000    16.10000000
   H     64.75000000    48.52000000    15.95000000
   H     64.68000000    49.52000000    17.42000000
   H     62.97000000    47.05000000    16.94000000
   H     64.20000000    47.20000000    18.23000000
   N     59.86000000    48.35000000    17.27000000
   C     58.49000000    48.20000000    16.83000000
   C     57.58000000    48.38000000    18.03000000
   O     56.43000000    48.79000000    17.84000000
   C     58.37000000    46.83000000    16.16000000
   C     56.91000000    46.47000000    15.90000000
   C     56.95000000    45.12000000    15.21000000
   O     57.15000000    45.00000000    13.99000000
   O     56.86000000    44.06000000    15.88000000
   H     60.37000000    47.52000000    17.53000000
   H     58.23000000    48.97000000    16.10000000
   H     58.74000000    46.04000000    16.81000000
   H     58.81000000    46.82000000    15.16000000
   H     56.54000000    47.25000000    15.24000000
   H     56.33000000    46.47000000    16.82000000
   N     58.09000000    48.09000000    19.23000000
   C     57.55000000    48.37000000    20.54000000
   H     56.52900000    47.99200000    20.60000000
   H     58.16300000    47.88200000    21.29800000
   H     57.54800000    49.44700000    20.71000000
   H     58.93000000    47.54000000    19.22000000
  Ca     58.36000000    42.69000000    14.18000000
   O     60.79000000    41.30000000    13.97000000
   H     61.60000000    41.80000000    14.04000000
   H     61.07000000    40.40000000    13.79000000

Ca 1.00



