%chk=loop1.cluster135.chk
%nprocshared=20
%mem=10GB
%nosave
#b3lyp/svp scf=(tight,noincore,xqc) Test 
#IOP(5/87=12) Density=Current Pop=(MK,readradii) iop(6/33=2) iop(6/42=6)

loop1.cluster135 

   0  1 
   C     79.95000000    67.98000000    30.33000000
   C     80.60000000    68.56000000    29.08000000
   O     80.25000000    68.06000000    28.01000000
   H     78.94200000    67.64100000    30.09100000
   H     80.54000000    67.13700000    30.69000000
   H     79.90100000    68.74600000    31.10400000
   N     81.60000000    69.44000000    29.15000000
   C     82.37000000    70.03000000    28.08000000
   C     81.51000000    70.23000000    26.84000000
   O     81.78000000    69.80000000    25.72000000
   C     83.57000000    69.12000000    27.78000000
   C     84.57000000    69.85000000    26.89000000
   O     85.45000000    69.14000000    26.35000000
   O     84.61000000    71.10000000    26.88000000
   H     81.85000000    69.78000000    30.07000000
   H     82.65000000    71.05000000    28.33000000
   H     83.33000000    68.16000000    27.32000000
   H     84.14000000    68.93000000    28.68000000
   N     80.39000000    70.94000000    27.00000000
   C     79.48000000    71.36000000    25.95000000
   C     80.13000000    72.02000000    24.75000000
   O     79.85000000    71.66000000    23.61000000
   C     78.41000000    72.23000000    26.60000000
   C     77.24000000    72.63000000    25.71000000
   C     76.18000000    73.22000000    26.64000000
   C     76.51000000    74.51000000    27.39000000
   N     76.24000000    75.73000000    26.61000000
   H     80.19000000    71.15000000    27.97000000
   H     79.09000000    70.44000000    25.50000000
   H     78.88000000    73.06000000    27.12000000
   H     78.05000000    71.56000000    27.39000000
   H     76.75000000    71.78000000    25.24000000
   H     77.58000000    73.32000000    24.94000000
   H     75.93000000    72.42000000    27.34000000
   H     75.28000000    73.39000000    26.06000000
   H     77.57000000    74.53000000    27.65000000
   H     75.81000000    74.54000000    28.22000000
   H     75.28000000    75.98000000    26.43000000
   H     76.51000000    76.57000000    27.12000000
   H     76.80000000    75.71000000    25.77000000
   N     81.13000000    72.88000000    24.98000000
   C     81.93000000    73.58000000    24.00000000
   C     83.04000000    72.74000000    23.37000000
   O     83.55000000    73.02000000    22.29000000
   C     82.49000000    74.84000000    24.65000000
   C     81.45000000    75.69000000    25.37000000
   O     80.50000000    76.20000000    24.73000000
   O     81.45000000    75.68000000    26.62000000
   H     81.21000000    73.22000000    25.93000000
   H     81.18000000    73.78000000    23.24000000
   H     82.95000000    75.39000000    23.84000000
   H     83.15000000    74.49000000    25.45000000
   N     83.45000000    71.62000000    23.96000000
   C     84.54000000    70.77000000    23.52000000
   C     85.83000000    71.57000000    23.51000000
   O     86.31000000    72.02000000    22.47000000
   H     82.95000000    71.50000000    24.83000000
   H     84.33000000    70.40000000    22.52000000
   H     84.72000000    69.86000000    24.08000000
   N     86.39000000    71.75000000    24.72000000
   C     87.62000000    72.45000000    25.00000000
   C     88.11000000    72.24000000    26.42000000
   O     89.30000000    72.35000000    26.69000000
   C     87.57000000    73.95000000    24.68000000
   C     86.18000000    74.54000000    24.84000000
   O     85.74000000    74.67000000    26.01000000
   O     85.49000000    74.73000000    23.81000000
   H     85.86000000    71.49000000    25.53000000
   H     88.40000000    72.07000000    24.33000000
   H     87.95000000    74.20000000    23.69000000
   H     88.24000000    74.44000000    25.39000000
   N     87.26000000    72.07000000    27.44000000
   C     87.58000000    71.85000000    28.83000000
   C     88.26000000    70.52000000    29.15000000
   O     88.66000000    69.81000000    28.23000000
   H     86.25000000    72.04000000    27.33000000
   H     86.69000000    71.87000000    29.46000000
   H     88.16000000    72.71000000    29.17000000
   N     88.58000000    70.23000000    30.41000000
   C     89.10000000    68.96000000    30.88000000
   C     90.47000000    69.08000000    31.53000000
   O     90.88000000    70.22000000    31.75000000
   C     88.11000000    68.34000000    31.86000000
   C     87.62000000    69.28000000    32.96000000
   O     87.10000000    67.90000000    30.99000000
   H     88.44000000    70.97000000    31.08000000
   H     89.24000000    68.20000000    30.11000000
   H     88.59000000    67.50000000    32.36000000
   H     87.24000000    68.33000000    30.14000000
   H     87.25000000    68.79000000    33.87000000
   H     88.51000000    69.84000000    33.26000000
   H     86.91000000    70.01000000    32.56000000
   N     91.22000000    67.99000000    31.73000000
   C     92.58000000    68.06000000    32.23000000
   C     93.45000000    66.96000000    31.64000000
   O     94.62000000    67.23000000    31.37000000
   C     92.55000000    68.10000000    33.76000000
   C     93.89000000    68.14000000    34.49000000
   C     91.74000000    66.99000000    34.41000000
   C     94.67000000    69.43000000    34.26000000
   H     90.77000000    67.11000000    31.54000000
   H     92.98000000    69.02000000    31.91000000
   H     91.97000000    68.95000000    34.10000000
   H     94.50000000    67.31000000    34.12000000
   H     93.78000000    68.00000000    35.56000000
   H     91.76000000    67.08000000    35.50000000
   H     90.70000000    67.04000000    34.08000000
   H     92.12000000    66.00000000    34.17000000
   H     95.64000000    69.48000000    34.74000000
   H     94.90000000    69.52000000    33.20000000
   H     94.02000000    70.24000000    34.61000000
   N     92.89000000    65.75000000    31.53000000
   C     93.55000000    64.61000000    30.92000000
   C     93.14000000    63.34000000    31.65000000
   O     91.97000000    63.08000000    31.88000000
   C     93.12000000    64.48000000    29.46000000
   C     93.68000000    65.52000000    28.50000000
   O     93.71000000    63.25000000    29.08000000
   H     91.89000000    65.70000000    31.62000000
   H     94.64000000    64.63000000    30.96000000
   H     92.03000000    64.51000000    29.42000000
   H     93.05000000    62.76000000    28.59000000
   H     93.50000000    66.55000000    28.79000000
   H     94.75000000    65.38000000    28.35000000
   H     93.29000000    65.37000000    27.49000000
   N     94.14000000    62.56000000    32.08000000
   C     94.04000000    61.47000000    33.03000000
   C     93.62000000    61.83000000    34.45000000
   O     93.07000000    60.99000000    35.16000000
   C     95.19000000    60.47000000    32.97000000
   C     96.61000000    60.99000000    33.22000000
   O     95.30000000    59.97000000    31.65000000
   H     95.08000000    62.88000000    31.89000000
   H     93.21000000    61.00000000    32.51000000
   H     95.06000000    59.69000000    33.71000000
   H     94.43000000    60.10000000    31.27000000
   H     97.35000000    60.20000000    33.31000000
   H     96.90000000    61.65000000    32.40000000
   H     96.56000000    61.53000000    34.16000000
   N     93.88000000    63.09000000    34.81000000
   C     93.75000000    63.48000000    36.20000000
   C     92.35000000    63.91000000    36.63000000
   O     91.42000000    64.14000000    35.87000000
   C     94.76000000    64.59000000    36.48000000
   C     96.17000000    64.03000000    36.63000000
   C     97.26000000    65.04000000    36.97000000
   C     98.58000000    64.39000000    37.35000000
   N     98.48000000    63.55000000    38.55000000
   H     94.29000000    63.74000000    34.15000000
   H     94.08000000    62.69000000    36.88000000
   H     94.63000000    65.10000000    37.43000000
   H     94.68000000    65.32000000    35.67000000
   H     96.50000000    63.57000000    35.70000000
   H     96.07000000    63.20000000    37.33000000
   H     96.85000000    65.75000000    37.70000000
   H     97.48000000    65.66000000    36.10000000
   H     99.36000000    65.14000000    37.42000000
   H     98.82000000    63.71000000    36.53000000
   H     98.44000000    62.57000000    38.33000000
   H     99.38000000    63.65000000    39.01000000
   H     97.78000000    63.86000000    39.21000000
   N     92.18000000    64.16000000    37.93000000
   C     91.10000000    64.98000000    38.46000000
   C     90.19000000    64.13000000    39.34000000
   O     90.60000000    63.55000000    40.34000000
   C     91.61000000    66.17000000    39.27000000
   C     92.23000000    67.28000000    38.42000000
   C     92.75000000    68.44000000    39.26000000
   O     91.94000000    69.13000000    39.92000000
   O     93.98000000    68.65000000    39.32000000
   H     92.97000000    64.06000000    38.56000000
   H     90.56000000    65.43000000    37.62000000
   H     92.41000000    65.82000000    39.92000000
   H     90.82000000    66.59000000    39.90000000
   H     91.40000000    67.78000000    37.93000000
   H     92.96000000    66.93000000    37.70000000
   N     88.87000000    64.02000000    39.19000000
   C     88.12000000    64.26000000    37.97000000
   H     87.22400000    64.83500000    38.20200000
   H     88.73800000    64.81900000    37.26700000
   H     87.83400000    63.30700000    37.52500000
   H     88.39000000    63.40000000    39.83000000
  Ca     85.45000000    74.30000000    21.33000000
   O     83.20000000    73.98000000    19.29000000
   H     82.46000000    73.67000000    19.82000000
   H     83.11000000    73.51000000    18.46000000
   O     85.22000000    71.93000000    19.73000000
   H     84.45000000    71.37000000    19.66000000
   H     85.92000000    71.34000000    19.98000000
   O     87.28000000    76.17000000    21.83000000
   H     87.02000000    77.08000000    21.76000000
   H     88.11000000    76.19000000    22.31000000
   O     87.53000000    73.68000000    19.99000000
   H     88.18000000    73.02000000    20.21000000
   H     88.03000000    74.41000000    19.63000000
   O     83.93000000    76.37000000    21.41000000
   H     83.82000000    77.21000000    20.97000000
   H     83.10000000    76.21000000    21.85000000
   O     85.57000000    76.04000000    19.09000000
   H     86.12000000    76.82000000    19.08000000
   H     84.87000000    76.23000000    18.46000000

Ca 1.00



