%chk=loop3.cluster157.chk
%nprocshared=20
%mem=10GB
%nosave
#b3lyp/svp scf=(tight,noincore,xqc) Test 
#IOP(5/87=12) Density=Current Pop=(MK,readradii) iop(6/33=2) iop(6/42=6)

loop3.cluster157 

   0  1 
   C     92.89000000    69.95000000    22.62000000
   C     94.27000000    69.34000000    22.47000000
   O     94.47000000    68.14000000    22.65000000
   H     92.18400000    69.17800000    22.92600000
   H     92.91900000    70.73500000    23.37600000
   H     92.57400000    70.37400000    21.66700000
   N     95.24000000    70.13000000    22.00000000
   C     96.61000000    69.72000000    21.83000000
   C     97.38000000    69.68000000    23.14000000
   O     97.62000000    68.66000000    23.78000000
   C     97.40000000    70.43000000    20.73000000
   C     96.92000000    71.85000000    20.48000000
   O     96.49000000    72.12000000    19.34000000
   O     96.82000000    72.58000000    21.49000000
   H     94.97000000    71.05000000    21.65000000
   H     96.59000000    68.69000000    21.46000000
   H     97.23000000    69.84000000    19.82000000
   H     98.44000000    70.40000000    21.06000000
   N     97.82000000    70.84000000    23.64000000
   C     98.60000000    70.96000000    24.85000000
   C     99.92000000    70.21000000    24.73000000
   O    100.65000000    70.52000000    23.80000000
   C     98.72000000    72.45000000    25.19000000
   C     99.38000000    72.73000000    26.53000000
   C     99.22000000    74.18000000    26.97000000
   C    100.24000000    74.58000000    28.03000000
   N    100.22000000    76.03000000    28.30000000
   H     97.53000000    71.69000000    23.18000000
   H     98.12000000    70.47000000    25.70000000
   H     97.71000000    72.85000000    25.26000000
   H     99.34000000    72.94000000    24.45000000
   H    100.44000000    72.47000000    26.45000000
   H     98.85000000    72.07000000    27.22000000
   H     98.17000000    74.35000000    27.21000000
   H     99.45000000    74.72000000    26.04000000
   H    101.22000000    74.39000000    27.59000000
   H    100.11000000    73.97000000    28.92000000
   H    100.47000000    76.54000000    27.47000000
   H     99.27000000    76.28000000    28.54000000
   H    100.86000000    76.35000000    29.02000000
   N    100.24000000    69.27000000    25.61000000
   C    101.46000000    68.50000000    25.49000000
   C    101.45000000    67.58000000    24.28000000
   O    102.53000000    67.22000000    23.80000000
   C    101.89000000    67.80000000    26.79000000
   C    100.92000000    66.75000000    27.30000000
   O    100.36000000    65.98000000    26.48000000
   O    100.75000000    66.66000000    28.53000000
   H     99.57000000    69.03000000    26.33000000
   H    102.24000000    69.20000000    25.17000000
   H    102.01000000    68.57000000    27.55000000
   H    102.89000000    67.38000000    26.68000000
   N    100.34000000    67.15000000    23.69000000
   C    100.32000000    66.47000000    22.41000000
   C     99.03000000    66.34000000    21.60000000
   O     97.92000000    66.77000000    21.91000000
   H     99.44000000    67.35000000    24.09000000
   H    100.89000000    65.55000000    22.52000000
   H    100.90000000    67.06000000    21.69000000
   N     99.08000000    65.60000000    20.49000000
   C    100.15000000    64.82000000    19.92000000
   C     99.60000000    63.56000000    19.27000000
   O     98.85000000    63.77000000    18.31000000
   C    100.91000000    65.77000000    19.00000000
   C    102.07000000    65.05000000    18.33000000
   N    102.03000000    64.89000000    17.01000000
   O    103.06000000    64.68000000    18.97000000
   H     98.21000000    65.60000000    19.98000000
   H    100.82000000    64.53000000    20.72000000
   H    101.39000000    66.49000000    19.65000000
   H    100.28000000    66.29000000    18.27000000
   H    101.25000000    65.13000000    16.41000000
   H    102.66000000    64.27000000    16.52000000
   N    100.17000000    62.38000000    19.51000000
   C    101.19000000    62.07000000    20.49000000
   C    100.61000000    62.07000000    21.89000000
   O    100.07000000    63.10000000    22.28000000
   H     99.94000000    61.64000000    18.86000000
   H    101.91000000    62.89000000    20.51000000
   H    101.76000000    61.16000000    20.27000000
   N    100.52000000    60.87000000    22.48000000
   C     99.68000000    60.51000000    23.59000000
   C    100.40000000    59.57000000    24.55000000
   O    101.19000000    58.69000000    24.19000000
   C     98.39000000    59.86000000    23.08000000
   C     97.31000000    60.67000000    22.40000000
   C     96.24000000    61.21000000    23.12000000
   C     97.34000000    60.84000000    21.01000000
   C     95.19000000    61.84000000    22.45000000
   C     96.30000000    61.47000000    20.32000000
   C     95.19000000    61.95000000    21.04000000
   O     94.18000000    62.58000000    20.38000000
   H    100.82000000    60.11000000    21.88000000
   H     99.42000000    61.40000000    24.17000000
   H     97.92000000    59.36000000    23.92000000
   H     98.71000000    59.02000000    22.46000000
   H     96.30000000    61.10000000    24.19000000
   H     98.15000000    60.38000000    20.45000000
   H     94.40000000    62.32000000    23.01000000
   H     96.35000000    61.47000000    19.25000000
   H     94.42000000    62.47000000    19.46000000
   N    100.16000000    59.68000000    25.86000000
   C    100.77000000    58.87000000    26.89000000
   C    100.34000000    57.40000000    26.92000000
   O    101.14000000    56.49000000    27.12000000
   C    100.49000000    59.50000000    28.25000000
   C     99.02000000    59.55000000    28.64000000
   C    101.42000000    58.94000000    29.32000000
   C     98.87000000    60.29000000    29.97000000
   H     99.61000000    60.45000000    26.21000000
   H    101.84000000    58.87000000    26.70000000
   H    100.78000000    60.54000000    28.07000000
   H     98.55000000    58.58000000    28.80000000
   H     98.36000000    60.01000000    27.89000000
   H    102.38000000    58.72000000    28.87000000
   H    101.46000000    59.69000000    30.12000000
   H    101.04000000    58.04000000    29.80000000
   H     97.86000000    60.52000000    30.31000000
   H     99.35000000    59.79000000    30.81000000
   H     99.46000000    61.20000000    29.91000000
   N     99.11000000    57.16000000    26.48000000
   C     98.44000000    55.89000000    26.26000000
   C     97.32000000    55.63000000    27.25000000
   O     96.72000000    54.56000000    27.26000000
   C     98.06000000    55.55000000    24.82000000
   O     99.28000000    55.41000000    24.12000000
   H     98.57000000    57.99000000    26.28000000
   H     99.08000000    55.02000000    26.40000000
   H     97.43000000    56.37000000    24.48000000
   H     97.52000000    54.61000000    24.76000000
   H     99.25000000    55.98000000    23.35000000
   N     96.98000000    56.65000000    28.04000000
   C     95.90000000    56.64000000    29.01000000
   C     95.39000000    58.05000000    29.22000000
   O     96.09000000    58.99000000    28.84000000
   C     96.39000000    56.07000000    30.34000000
   H     97.41000000    57.53000000    27.79000000
   H     95.12000000    55.98000000    28.64000000
   H     97.35000000    56.50000000    30.62000000
   H     95.63000000    56.18000000    31.11000000
   H     96.43000000    54.98000000    30.36000000
   N     94.20000000    58.20000000    29.81000000
   C     93.77000000    59.50000000    30.29000000
   C     93.80000000    60.74000000    29.40000000
   O     94.05000000    61.82000000    29.92000000
   C     94.44000000    59.70000000    31.65000000
   H     93.70000000    57.38000000    30.12000000
   H     92.70000000    59.35000000    30.41000000
   H     94.10000000    60.67000000    32.01000000
   H     94.35000000    58.88000000    32.36000000
   H     95.51000000    59.83000000    31.49000000
   N     93.48000000    60.71000000    28.10000000
   C     93.30000000    61.89000000    27.28000000
   C     92.11000000    61.77000000    26.33000000
   O     91.62000000    62.78000000    25.84000000
   C     94.55000000    62.12000000    26.45000000
   C     95.68000000    62.94000000    27.06000000
   C     95.32000000    64.42000000    27.02000000
   O     95.40000000    64.98000000    25.91000000
   O     94.78000000    64.94000000    28.02000000
   H     93.40000000    59.79000000    27.68000000
   H     93.10000000    62.79000000    27.85000000
   H     94.32000000    62.59000000    25.49000000
   H     94.96000000    61.15000000    26.15000000
   H     96.52000000    62.88000000    26.37000000
   H     96.03000000    62.75000000    28.08000000
   N     91.55000000    60.58000000    26.09000000
   C     90.35000000    60.33000000    25.31000000
   H     89.57900000    61.04900000    25.58900000
   H     90.57700000    60.43600000    24.24900000
   H     89.99200000    59.31900000    25.50700000
   H     92.02000000    59.78000000    26.49000000
  Ca     95.98000000    66.47000000    23.99000000
   O     97.82000000    66.61000000    25.86000000
   H     97.30000000    66.42000000    26.64000000
   H     98.73000000    66.56000000    26.16000000
   O     97.44000000    64.25000000    23.50000000
   H     97.86000000    64.03000000    24.33000000
   H     97.83000000    63.65000000    22.86000000
   O     94.79000000    68.13000000    25.86000000
   H     93.98000000    67.83000000    26.27000000
   H     94.69000000    69.08000000    25.81000000
   O     95.27000000    65.72000000    21.46000000
   H     94.59000000    65.05000000    21.52000000
   H     95.79000000    65.47000000    20.70000000

Ca 1.00



