%chk=loop3.cluster72.chk
%nprocshared=20
%mem=10GB
%nosave
#b3lyp/svp scf=(tight,noincore,xqc) Test 
#IOP(5/87=12) Density=Current Pop=(MK,readradii) iop(6/33=2) iop(6/42=6)

loop3.cluster72 

   0  1 
   C     52.33000000    55.53000000    40.96000000
   C     53.14000000    55.97000000    42.17000000
   O     52.47000000    56.44000000    43.09000000
   H     51.43100000    56.14200000    40.88300000
   H     52.92900000    55.65100000    40.05800000
   H     52.04800000    54.48300000    41.07200000
   N     54.44000000    55.70000000    42.24000000
   C     55.32000000    55.78000000    43.39000000
   C     55.79000000    57.17000000    43.79000000
   O     56.95000000    57.52000000    43.56000000
   C     54.95000000    54.87000000    44.55000000
   C     54.55000000    53.45000000    44.18000000
   O     53.93000000    52.80000000    45.06000000
   O     54.94000000    52.87000000    43.15000000
   H     54.82000000    55.21000000    41.44000000
   H     56.24000000    55.33000000    43.01000000
   H     54.09000000    55.28000000    45.09000000
   H     55.80000000    54.61000000    45.17000000
   N     54.75000000    57.83000000    44.30000000
   C     54.63000000    59.19000000    44.77000000
   C     55.45000000    59.42000000    46.03000000
   O     55.81000000    60.55000000    46.33000000
   C     53.20000000    59.68000000    44.96000000
   C     52.35000000    59.14000000    46.12000000
   C     51.96000000    57.73000000    45.70000000
   C     50.97000000    57.08000000    46.66000000
   N     51.57000000    56.10000000    47.57000000
   H     53.93000000    57.24000000    44.35000000
   H     55.15000000    59.81000000    44.04000000
   H     52.69000000    59.53000000    44.01000000
   H     53.27000000    60.75000000    45.16000000
   H     51.38000000    59.61000000    46.24000000
   H     52.97000000    59.09000000    47.01000000
   H     52.84000000    57.09000000    45.72000000
   H     51.50000000    57.72000000    44.71000000
   H     50.36000000    56.40000000    46.07000000
   H     50.32000000    57.85000000    47.08000000
   H     51.82000000    55.27000000    47.06000000
   H     52.51000000    56.41000000    47.80000000
   H     51.08000000    56.02000000    48.45000000
   N     55.72000000    58.34000000    46.77000000
   C     56.37000000    58.22000000    48.06000000
   C     57.03000000    56.86000000    48.27000000
   O     56.97000000    56.04000000    47.36000000
   C     55.41000000    58.47000000    49.21000000
   C     54.17000000    57.58000000    49.19000000
   O     53.12000000    57.90000000    49.78000000
   O     54.13000000    56.54000000    48.49000000
   H     55.41000000    57.45000000    46.41000000
   H     57.16000000    58.96000000    48.16000000
   H     54.97000000    59.46000000    49.06000000
   H     55.93000000    58.35000000    50.16000000
   N     57.60000000    56.56000000    49.44000000
   C     57.69000000    55.21000000    49.96000000
   C     56.49000000    54.62000000    50.68000000
   O     55.88000000    55.42000000    51.39000000
   H     57.39000000    57.21000000    50.19000000
   H     58.49000000    55.15000000    50.71000000
   H     58.00000000    54.70000000    49.06000000
   N     56.14000000    53.35000000    50.51000000
   C     54.89000000    52.82000000    51.04000000
   C     55.02000000    51.36000000    51.43000000
   O     54.08000000    50.81000000    52.00000000
   C     53.85000000    52.96000000    49.93000000
   C     52.45000000    52.67000000    50.45000000
   N     51.81000000    53.57000000    51.20000000
   O     51.78000000    51.74000000    50.03000000
   H     56.66000000    52.71000000    49.92000000
   H     54.55000000    53.40000000    51.89000000
   H     53.99000000    52.25000000    49.11000000
   H     53.70000000    53.97000000    49.56000000
   H     52.18000000    54.50000000    51.35000000
   H     50.87000000    53.32000000    51.47000000
   N     56.11000000    50.65000000    51.13000000
   C     56.40000000    49.36000000    51.74000000
   C     55.62000000    48.22000000    51.11000000
   O     55.50000000    48.05000000    49.90000000
   H     56.76000000    51.04000000    50.47000000
   H     56.18000000    49.51000000    52.80000000
   H     57.45000000    49.08000000    51.63000000
   N     55.09000000    47.31000000    51.93000000
   C     54.37000000    46.12000000    51.53000000
   C     53.01000000    46.24000000    50.86000000
   O     52.26000000    45.27000000    50.74000000
   C     55.24000000    45.13000000    50.76000000
   C     56.57000000    44.83000000    51.42000000
   C     56.52000000    44.10000000    52.61000000
   C     57.81000000    45.37000000    51.07000000
   C     57.66000000    43.73000000    53.34000000
   C     58.97000000    45.06000000    51.79000000
   C     58.92000000    44.15000000    52.86000000
   O     59.95000000    43.66000000    53.61000000
   H     55.07000000    47.59000000    52.90000000
   H     54.13000000    45.55000000    52.43000000
   H     55.44000000    45.49000000    49.75000000
   H     54.67000000    44.21000000    50.60000000
   H     55.58000000    43.71000000    52.97000000
   H     57.78000000    46.05000000    50.22000000
   H     57.58000000    43.08000000    54.20000000
   H     59.96000000    45.40000000    51.53000000
   H     60.74000000    44.09000000    53.26000000
   N     52.65000000    47.47000000    50.46000000
   C     51.29000000    47.82000000    50.09000000
   C     50.12000000    47.81000000    51.06000000
   O     49.53000000    48.87000000    51.25000000
   C     50.92000000    47.21000000    48.74000000
   C     51.88000000    47.54000000    47.60000000
   C     49.59000000    47.80000000    48.28000000
   C     52.35000000    48.98000000    47.40000000
   H     53.46000000    48.05000000    50.33000000
   H     51.36000000    48.88000000    49.82000000
   H     50.85000000    46.13000000    48.83000000
   H     51.45000000    47.21000000    46.66000000
   H     52.79000000    46.93000000    47.69000000
   H     48.81000000    47.51000000    48.98000000
   H     49.62000000    48.89000000    48.21000000
   H     49.36000000    47.44000000    47.28000000
   H     53.03000000    49.13000000    46.56000000
   H     51.49000000    49.65000000    47.34000000
   H     52.85000000    49.19000000    48.34000000
   N     49.91000000    46.76000000    51.86000000
   C     49.01000000    46.70000000    53.00000000
   C     47.61000000    47.27000000    52.82000000
   O     47.15000000    47.87000000    53.79000000
   C     48.81000000    45.28000000    53.53000000
   O     50.08000000    44.67000000    53.59000000
   H     50.60000000    46.04000000    51.70000000
   H     49.54000000    47.20000000    53.80000000
   H     48.26000000    44.73000000    52.76000000
   H     48.34000000    45.23000000    54.51000000
   H     49.90000000    43.73000000    53.64000000
   N     47.10000000    47.33000000    51.59000000
   C     45.90000000    48.02000000    51.17000000
   C     45.75000000    49.52000000    51.35000000
   O     44.63000000    50.02000000    51.32000000
   C     44.76000000    47.22000000    51.78000000
   H     47.68000000    46.94000000    50.86000000
   H     45.83000000    47.89000000    50.09000000
   H     43.76000000    47.57000000    51.54000000
   H     44.74000000    46.18000000    51.47000000
   H     44.74000000    47.17000000    52.87000000
   N     46.86000000    50.21000000    51.62000000
   C     46.94000000    51.65000000    51.80000000
   C     46.75000000    52.41000000    50.49000000
   O     47.49000000    52.29000000    49.51000000
   C     48.24000000    52.08000000    52.46000000
   H     47.73000000    49.75000000    51.40000000
   H     46.11000000    51.90000000    52.46000000
   H     49.02000000    51.60000000    51.86000000
   H     48.52000000    53.11000000    52.25000000
   H     48.37000000    51.62000000    53.43000000
   N     45.79000000    53.33000000    50.46000000
   C     45.64000000    54.36000000    49.46000000
   C     45.36000000    53.91000000    48.03000000
   O     45.30000000    54.72000000    47.11000000
   C     46.72000000    55.41000000    49.68000000
   C     48.16000000    54.99000000    49.39000000
   C     49.07000000    56.20000000    49.28000000
   O     48.75000000    57.23000000    48.64000000
   O     50.19000000    56.20000000    49.84000000
   H     45.20000000    53.41000000    51.28000000
   H     44.69000000    54.83000000    49.71000000
   H     46.65000000    55.84000000    50.68000000
   H     46.32000000    56.26000000    49.13000000
   H     48.22000000    54.40000000    48.47000000
   H     48.52000000    54.46000000    50.28000000
   N     44.96000000    52.65000000    47.84000000
   C     44.67000000    52.05000000    46.55000000
   H     43.85800000    52.59600000    46.07000000
   H     45.55900000    52.09400000    45.92000000
   H     44.37500000    51.01000000    46.69000000
   H     44.98000000    52.00000000    48.62000000
  Ca     51.30000000    57.76000000    51.55000000
   O     50.47000000    56.09000000    53.45000000
   H     49.95000000    56.68000000    54.00000000
   H     50.35000000    55.22000000    53.85000000
   O     50.28000000    59.40000000    49.33000000
   H     49.85000000    58.78000000    48.74000000
   H     50.51000000    60.15000000    48.77000000
   O     52.65000000    60.39000000    50.42000000
   H     52.34000000    60.92000000    49.68000000
   H     53.09000000    59.65000000    50.01000000
   O     48.54000000    57.81000000    51.96000000
   H     47.86000000    57.35000000    52.45000000
   H     48.07000000    58.27000000    51.26000000
   O     53.29000000    55.93000000    51.97000000
   H     53.45000000    55.71000000    52.88000000
   H     54.16000000    56.06000000    51.59000000
   O     50.72000000    59.91000000    53.00000000
   H     50.56000000    60.74000000    52.53000000
   H     50.63000000    60.14000000    53.92000000
   O     53.47000000    58.59000000    53.21000000
   H     53.98000000    58.03000000    53.79000000
   H     54.05000000    59.33000000    53.03000000

Ca 1.00



