%chk=loop4.cluster47.chk
%nprocshared=20
%mem=10GB
%nosave
#b3lyp/svp scf=(tight,noincore,xqc) Test 
#IOP(5/87=12) Density=Current Pop=(MK,readradii) iop(6/33=2) iop(6/42=6)

loop4.cluster47 

   -3  1 
   C     52.86000000    16.06000000    37.05000000
   C     53.19000000    15.33000000    38.35000000
   O     53.80000000    15.98000000    39.20000000
   H     52.03500000    16.75100000    37.22200000
   H     53.73500000    16.61600000    36.71300000
   H     52.57300000    15.33500000    36.28800000
   N     52.86000000    14.04000000    38.43000000
   C     52.91000000    13.15000000    39.57000000
   C     52.30000000    13.66000000    40.87000000
   O     52.68000000    13.33000000    41.99000000
   C     54.32000000    12.60000000    39.80000000
   C     54.98000000    12.14000000    38.50000000
   O     55.80000000    12.83000000    37.86000000
   O     54.69000000    11.05000000    37.96000000
   H     52.43000000    13.60000000    37.63000000
   H     52.27000000    12.30000000    39.38000000
   H     54.24000000    11.82000000    40.56000000
   H     55.01000000    13.37000000    40.13000000
   N     51.31000000    14.55000000    40.78000000
   C     50.56000000    15.10000000    41.90000000
   C     49.57000000    14.05000000    42.39000000
   O     48.69000000    13.60000000    41.65000000
   C     49.89000000    16.41000000    41.49000000
   C     50.91000000    17.45000000    41.05000000
   C     49.04000000    16.96000000    42.63000000
   C     50.34000000    18.77000000    40.54000000
   H     50.90000000    14.68000000    39.86000000
   H     51.26000000    15.21000000    42.72000000
   H     49.21000000    16.25000000    40.65000000
   H     51.40000000    17.00000000    40.20000000
   H     51.63000000    17.74000000    41.82000000
   H     49.64000000    17.17000000    43.52000000
   H     48.55000000    17.88000000    42.32000000
   H     48.30000000    16.24000000    43.00000000
   H     51.12000000    19.43000000    40.14000000
   H     49.53000000    18.58000000    39.83000000
   H     49.87000000    19.31000000    41.36000000
   N     49.48000000    13.68000000    43.67000000
   C     50.38000000    13.88000000    44.79000000
   C     51.52000000    12.87000000    44.79000000
   O     52.64000000    13.32000000    45.02000000
   C     49.57000000    13.86000000    46.08000000
   C     48.74000000    12.62000000    46.38000000
   O     48.57000000    11.72000000    45.52000000
   O     48.37000000    12.48000000    47.56000000
   H     48.63000000    13.18000000    43.90000000
   H     50.91000000    14.83000000    44.66000000
   H     48.93000000    14.74000000    46.16000000
   H     50.30000000    13.94000000    46.88000000
   N     51.21000000    11.59000000    44.61000000
   C     52.14000000    10.49000000    44.74000000
   C     52.60000000    10.32000000    46.18000000
   O     51.82000000    10.44000000    47.13000000
   H     50.24000000    11.34000000    44.47000000
   H     52.97000000    10.71000000    44.06000000
   H     51.62000000     9.58000000    44.44000000
   N     53.87000000     9.94000000    46.33000000
   C     54.42000000     9.88000000    47.66000000
   C     54.33000000    11.21000000    48.40000000
   O     54.53000000    11.22000000    49.62000000
   C     55.89000000     9.47000000    47.57000000
   C     56.74000000    10.31000000    46.63000000
   O     57.19000000    11.43000000    46.94000000
   O     56.73000000     9.95000000    45.43000000
   H     54.58000000     9.91000000    45.61000000
   H     53.88000000     9.13000000    48.25000000
   H     55.90000000     8.43000000    47.26000000
   H     56.31000000     9.52000000    48.58000000
   N     54.03000000    12.28000000    47.68000000
   C     53.94000000    13.61000000    48.26000000
   C     55.28000000    14.25000000    48.59000000
   O     55.19000000    15.45000000    48.84000000
   H     53.78000000    12.17000000    46.70000000
   H     53.25000000    13.47000000    49.09000000
   H     53.37000000    14.24000000    47.57000000
   N     56.44000000    13.59000000    48.68000000
   C     57.71000000    14.04000000    49.21000000
   C     58.27000000    15.32000000    48.60000000
   O     59.11000000    15.98000000    49.20000000
   C     57.67000000    14.14000000    50.73000000
   C     57.35000000    12.84000000    51.47000000
   C     57.67000000    12.71000000    52.95000000
   N     57.84000000    11.48000000    53.43000000
   O     57.90000000    13.63000000    53.73000000
   H     56.36000000    12.58000000    48.63000000
   H     58.50000000    13.34000000    48.96000000
   H     56.89000000    14.83000000    51.07000000
   H     58.60000000    14.54000000    51.14000000
   H     58.00000000    12.12000000    50.99000000
   H     56.30000000    12.64000000    51.24000000
   H     57.52000000    10.69000000    52.91000000
   H     58.31000000    11.36000000    54.32000000
   N     57.88000000    15.66000000    47.37000000
   C     58.47000000    16.68000000    46.53000000
   C     59.72000000    16.03000000    45.96000000
   O     59.74000000    14.83000000    45.70000000
   C     57.52000000    17.13000000    45.42000000
   C     56.12000000    17.42000000    45.95000000
   C     57.95000000    18.33000000    44.58000000
   H     57.16000000    15.09000000    46.94000000
   H     58.69000000    17.54000000    47.17000000
   H     57.47000000    16.26000000    44.76000000
   H     55.70000000    16.49000000    46.32000000
   H     56.21000000    18.17000000    46.73000000
   H     55.51000000    17.82000000    45.14000000
   H     59.01000000    18.23000000    44.36000000
   H     57.37000000    18.34000000    43.66000000
   H     57.83000000    19.24000000    45.16000000
   N     60.79000000    16.80000000    45.75000000
   C     62.07000000    16.23000000    45.36000000
   C     62.87000000    17.12000000    44.43000000
   O     62.72000000    18.34000000    44.50000000
   C     62.86000000    15.92000000    46.62000000
   C     64.30000000    15.45000000    46.44000000
   N     64.52000000    14.14000000    46.62000000
   O     65.21000000    16.18000000    46.07000000
   H     60.66000000    17.76000000    46.00000000
   H     61.98000000    15.25000000    44.90000000
   H     62.25000000    15.21000000    47.17000000
   H     62.81000000    16.83000000    47.22000000
   H     63.79000000    13.49000000    46.85000000
   H     65.42000000    13.76000000    46.39000000
   N     63.59000000    16.59000000    43.44000000
   C     64.28000000    17.37000000    42.43000000
   C     64.55000000    16.67000000    41.11000000
   O     65.68000000    16.58000000    40.62000000
   C     65.52000000    18.07000000    42.99000000
   C     65.66000000    19.50000000    42.55000000
   C     65.31000000    19.86000000    41.24000000
   C     66.26000000    20.45000000    43.38000000
   C     65.38000000    21.21000000    40.86000000
   C     66.24000000    21.82000000    43.07000000
   C     65.86000000    22.18000000    41.77000000
   O     65.95000000    23.44000000    41.25000000
   H     63.66000000    15.58000000    43.36000000
   H     63.55000000    18.06000000    42.02000000
   H     66.45000000    17.51000000    42.87000000
   H     65.39000000    18.20000000    44.06000000
   H     64.77000000    19.16000000    40.62000000
   H     66.60000000    20.11000000    44.35000000
   H     64.83000000    21.49000000    39.98000000
   H     66.63000000    22.50000000    43.82000000
   H     66.47000000    23.98000000    41.85000000
   N     63.57000000    16.03000000    40.48000000
   C     63.84000000    15.10000000    39.41000000
   C     64.00000000    15.62000000    37.99000000
   O     64.76000000    15.08000000    37.19000000
   C     62.76000000    14.03000000    39.55000000
   C     63.08000000    12.76000000    38.76000000
   C     61.98000000    11.72000000    38.92000000
   O     60.94000000    11.86000000    38.25000000
   O     62.10000000    10.87000000    39.83000000
   H     62.64000000    16.15000000    40.87000000
   H     64.79000000    14.59000000    39.60000000
   H     61.80000000    14.38000000    39.18000000
   H     62.68000000    13.85000000    40.62000000
   H     63.92000000    12.28000000    39.26000000
   H     63.32000000    12.97000000    37.72000000
   N     63.16000000    16.50000000    37.43000000
   C     61.77000000    16.80000000    37.71000000
   C     61.40000000    18.25000000    37.45000000
   O     62.23000000    19.04000000    37.00000000
   C     60.91000000    15.85000000    36.88000000
   C     60.93000000    16.06000000    35.37000000
   C     60.48000000    14.91000000    34.47000000
   O     59.29000000    14.54000000    34.50000000
   O     61.42000000    14.34000000    33.88000000
   H     63.63000000    17.08000000    36.74000000
   H     61.59000000    16.68000000    38.78000000
   H     59.90000000    15.81000000    37.31000000
   H     61.35000000    14.86000000    36.99000000
   H     61.98000000    16.11000000    35.07000000
   H     60.41000000    17.00000000    35.19000000
   N     60.20000000    18.69000000    37.83000000
   C     59.50000000    19.92000000    37.48000000
   H     58.56100000    19.97200000    38.03000000
   H     60.12000000    20.77800000    37.73900000
   H     59.29400000    19.93000000    36.41000000
   H     59.69000000    18.09000000    38.46000000
  Ca     56.94000000    13.61000000    35.45000000
   O     58.61000000    13.07000000    37.52000000
   H     59.46000000    12.66000000    37.63000000
   H     58.25000000    13.12000000    38.40000000
   O     58.42000000    11.12000000    34.95000000
   H     57.95000000    10.60000000    34.29000000
   H     59.28000000    11.29000000    34.56000000
   O     56.68000000    15.40000000    37.28000000
   H     56.17000000    14.90000000    37.92000000
   H     57.15000000    16.05000000    37.80000000
   O     56.77000000    15.97000000    33.99000000
   H     57.22000000    16.81000000    34.04000000
   H     56.52000000    15.89000000    33.07000000
   O     55.43000000    11.52000000    35.27000000
   H     55.04000000    11.49000000    36.14000000
   H     54.87000000    10.96000000    34.73000000
   O     56.35000000    12.77000000    32.87000000
   H     56.86000000    12.82000000    32.06000000
   H     55.51000000    12.38000000    32.60000000

Ca 1.00



