%chk=loop3.cluster103.chk
%nprocshared=20
%mem=10GB
%nosave
#b3lyp/svp scf=(tight,noincore,xqc) Test 
#IOP(5/87=12) Density=Current Pop=(MK,readradii) iop(6/33=2) iop(6/42=6)

loop3.cluster103 

   0  1 
   C     54.33000000    56.26000000    40.83000000
   C     55.08000000    56.50000000    42.13000000
   O     54.37000000    56.62000000    43.13000000
   H     53.43200000    56.87700000    40.81000000
   H     54.96900000    56.52300000    39.98700000
   H     54.05000000    55.20900000    40.76000000
   N     56.40000000    56.64000000    42.13000000
   C     57.29000000    56.81000000    43.26000000
   C     57.13000000    58.06000000    44.13000000
   O     58.20000000    58.61000000    44.39000000
   C     57.27000000    55.57000000    44.14000000
   C     57.51000000    54.25000000    43.42000000
   O     56.67000000    53.32000000    43.40000000
   O     58.58000000    54.15000000    42.78000000
   H     56.85000000    56.38000000    41.26000000
   H     58.31000000    56.78000000    42.88000000
   H     56.25000000    55.50000000    44.51000000
   H     57.97000000    55.59000000    44.98000000
   N     55.93000000    58.46000000    44.52000000
   C     55.50000000    59.72000000    45.09000000
   C     56.12000000    60.08000000    46.43000000
   O     56.48000000    61.24000000    46.67000000
   C     53.98000000    59.86000000    45.01000000
   C     53.17000000    59.15000000    46.09000000
   C     53.04000000    57.63000000    46.03000000
   C     52.28000000    56.94000000    47.16000000
   N     53.02000000    56.96000000    48.43000000
   H     55.19000000    58.01000000    44.00000000
   H     55.82000000    60.49000000    44.39000000
   H     53.73000000    59.42000000    44.04000000
   H     53.73000000    60.92000000    44.94000000
   H     52.11000000    59.39000000    46.04000000
   H     53.63000000    59.45000000    47.03000000
   H     54.02000000    57.18000000    45.89000000
   H     52.45000000    57.53000000    45.11000000
   H     51.99000000    55.97000000    46.76000000
   H     51.34000000    57.49000000    47.21000000
   H     52.37000000    56.67000000    49.15000000
   H     53.82000000    56.37000000    48.57000000
   H     53.21000000    57.91000000    48.71000000
   N     56.12000000    59.12000000    47.36000000
   C     56.98000000    59.04000000    48.53000000
   C     57.21000000    57.60000000    48.95000000
   O     56.44000000    56.72000000    48.58000000
   C     56.47000000    59.94000000    49.65000000
   C     55.18000000    59.58000000    50.37000000
   O     54.89000000    60.20000000    51.42000000
   O     54.28000000    58.95000000    49.78000000
   H     55.67000000    58.27000000    47.06000000
   H     57.94000000    59.45000000    48.22000000
   H     56.49000000    60.99000000    49.37000000
   H     57.22000000    59.94000000    50.45000000
   N     58.13000000    57.28000000    49.87000000
   C     58.36000000    55.99000000    50.50000000
   C     57.10000000    55.47000000    51.17000000
   O     56.28000000    56.24000000    51.68000000
   H     58.74000000    58.02000000    50.18000000
   H     59.15000000    56.10000000    51.25000000
   H     58.69000000    55.28000000    49.74000000
   N     56.96000000    54.15000000    51.27000000
   C     56.02000000    53.40000000    52.08000000
   C     56.57000000    52.20000000    52.84000000
   O     55.79000000    51.37000000    53.30000000
   C     54.83000000    53.01000000    51.21000000
   C     54.07000000    54.22000000    50.70000000
   N     53.31000000    54.88000000    51.58000000
   O     53.99000000    54.54000000    49.52000000
   H     57.68000000    53.57000000    50.86000000
   H     55.51000000    53.98000000    52.85000000
   H     54.17000000    52.32000000    51.75000000
   H     55.13000000    52.44000000    50.33000000
   H     53.23000000    54.46000000    52.50000000
   H     52.83000000    55.72000000    51.29000000
   N     57.88000000    51.96000000    52.99000000
   C     58.48000000    50.76000000    53.54000000
   C     58.16000000    49.47000000    52.80000000
   O     58.04000000    49.49000000    51.57000000
   H     58.52000000    52.65000000    52.64000000
   H     58.14000000    50.63000000    54.57000000
   H     59.57000000    50.83000000    53.56000000
   N     58.00000000    48.38000000    53.55000000
   C     57.18000000    47.24000000    53.17000000
   C     55.81000000    47.51000000    52.57000000
   O     55.02000000    46.60000000    52.30000000
   C     57.91000000    46.18000000    52.35000000
   C     59.28000000    45.70000000    52.78000000
   C     59.37000000    44.91000000    53.94000000
   C     60.51000000    46.16000000    52.31000000
   C     60.58000000    44.56000000    54.55000000
   C     61.74000000    45.71000000    52.80000000
   C     61.80000000    44.97000000    53.99000000
   O     62.95000000    44.84000000    54.72000000
   H     58.40000000    48.41000000    54.48000000
   H     56.89000000    46.77000000    54.11000000
   H     57.99000000    46.59000000    51.35000000
   H     57.27000000    45.32000000    52.18000000
   H     58.51000000    44.57000000    54.50000000
   H     60.41000000    46.71000000    51.38000000
   H     60.65000000    44.05000000    55.50000000
   H     62.63000000    46.15000000    52.37000000
   H     63.70000000    45.05000000    54.15000000
   N     55.40000000    48.71000000    52.17000000
   C     54.22000000    49.01000000    51.39000000
   C     52.94000000    48.79000000    52.18000000
   O     52.18000000    49.73000000    52.39000000
   C     54.13000000    48.47000000    49.96000000
   C     55.44000000    48.69000000    49.21000000
   C     52.93000000    49.07000000    49.23000000
   C     55.96000000    50.11000000    49.04000000
   H     56.20000000    49.34000000    52.14000000
   H     54.11000000    50.09000000    51.30000000
   H     53.91000000    47.40000000    50.05000000
   H     55.29000000    48.26000000    48.22000000
   H     56.14000000    48.05000000    49.75000000
   H     52.95000000    48.91000000    48.15000000
   H     51.97000000    48.66000000    49.54000000
   H     52.75000000    50.13000000    49.41000000
   H     55.31000000    50.84000000    48.55000000
   H     56.34000000    50.62000000    49.93000000
   H     56.82000000    49.97000000    48.39000000
   N     52.61000000    47.54000000    52.54000000
   C     51.52000000    47.22000000    53.44000000
   C     50.14000000    47.37000000    52.82000000
   O     49.18000000    47.77000000    53.48000000
   C     51.69000000    45.79000000    53.95000000
   O     51.76000000    44.97000000    52.81000000
   H     53.21000000    46.77000000    52.25000000
   H     51.58000000    47.98000000    54.22000000
   H     50.80000000    45.47000000    54.48000000
   H     52.55000000    45.62000000    54.60000000
   H     51.81000000    44.05000000    53.10000000
   N     50.07000000    47.21000000    51.49000000
   C     49.02000000    47.68000000    50.61000000
   C     48.67000000    49.16000000    50.74000000
   O     47.72000000    49.65000000    50.14000000
   C     47.85000000    46.70000000    50.59000000
   H     50.89000000    46.90000000    50.99000000
   H     49.55000000    47.52000000    49.67000000
   H     47.28000000    46.85000000    51.51000000
   H     47.32000000    46.75000000    49.65000000
   H     48.22000000    45.68000000    50.56000000
   N     49.53000000    49.99000000    51.33000000
   C     49.01000000    51.28000000    51.75000000
   C     49.03000000    52.32000000    50.65000000
   O     49.86000000    52.26000000    49.75000000
   C     49.76000000    51.67000000    53.02000000
   H     50.46000000    49.72000000    51.61000000
   H     47.98000000    51.09000000    52.07000000
   H     50.82000000    51.73000000    52.78000000
   H     49.49000000    52.68000000    53.33000000
   H     49.66000000    50.91000000    53.80000000
   N     48.10000000    53.28000000    50.60000000
   C     47.93000000    54.33000000    49.62000000
   C     47.74000000    53.84000000    48.19000000
   O     47.53000000    54.56000000    47.22000000
   C     49.02000000    55.39000000    49.69000000
   C     49.42000000    55.95000000    51.05000000
   C     50.36000000    57.15000000    51.00000000
   O     49.87000000    58.29000000    51.11000000
   O     51.56000000    57.11000000    50.68000000
   H     47.40000000    53.26000000    51.33000000
   H     47.02000000    54.90000000    49.83000000
   H     48.76000000    56.20000000    49.00000000
   H     49.89000000    54.94000000    49.21000000
   H     49.84000000    55.21000000    51.73000000
   H     48.49000000    56.20000000    51.54000000
   N     47.56000000    52.54000000    47.97000000
   C     47.31000000    51.84000000    46.73000000
   H     46.51900000    52.34900000    46.17900000
   H     48.21900000    51.82800000    46.12900000
   H     47.00200000    50.81700000    46.94500000
   H     47.73000000    51.93000000    48.76000000
  Ca     52.38000000    59.41000000    51.87000000
   O     51.67000000    59.85000000    49.32000000
   H     52.40000000    60.44000000    49.11000000
   H     50.93000000    60.20000000    48.82000000
   O     52.60000000    61.97000000    51.53000000
   H     53.07000000    62.51000000    52.16000000
   H     52.37000000    62.58000000    50.82000000
   O     51.45000000    57.79000000    54.03000000
   H     50.80000000    57.17000000    54.35000000
   H     52.11000000    57.83000000    54.73000000
   O     53.37000000    60.12000000    54.18000000
   H     54.09000000    60.75000000    54.18000000
   H     53.27000000    59.87000000    55.10000000
   O     50.58000000    60.58000000    53.39000000
   H     50.38000000    59.79000000    53.89000000
   H     50.27000000    61.30000000    53.94000000
   O     54.23000000    57.50000000    52.79000000
   H     54.82000000    56.95000000    52.27000000
   H     54.48000000    57.33000000    53.69000000

Ca 1.00



