%chk=loop1.cluster151.chk
%nprocshared=20
%mem=10GB
%nosave
#b3lyp/svp scf=(tight,noincore,xqc) Test 
#IOP(5/87=12) Density=Current Pop=(MK,readradii) iop(6/33=2) iop(6/42=6)

loop1.cluster151 

   0  1 
   C     13.13000000    56.80000000    15.36000000
   C     11.96000000    57.21000000    14.48000000
   O     11.25000000    56.36000000    13.96000000
   H     13.94600000    57.51100000    15.23200000
   H     12.81500000    56.79200000    16.40400000
   H     13.46800000    55.80400000    15.07500000
   N     11.78000000    58.51000000    14.21000000
   C     10.75000000    59.09000000    13.36000000
   C     11.14000000    59.13000000    11.89000000
   O     11.48000000    60.19000000    11.37000000
   C     10.32000000    60.48000000    13.81000000
   C      9.24000000    61.20000000    13.02000000
   O      9.09000000    62.44000000    13.05000000
   O      8.47000000    60.54000000    12.29000000
   H     12.12000000    59.11000000    14.95000000
   H      9.82000000    58.53000000    13.43000000
   H     11.19000000    61.13000000    13.78000000
   H      9.89000000    60.39000000    14.81000000
   N     11.08000000    57.99000000    11.21000000
   C     11.40000000    57.87000000     9.80000000
   C     10.36000000    58.46000000     8.86000000
   O     10.60000000    58.81000000     7.71000000
   C     11.63000000    56.40000000     9.46000000
   C     12.21000000    56.00000000     8.11000000
   C     12.59000000    54.53000000     8.04000000
   C     13.30000000    53.98000000     6.81000000
   N     14.51000000    54.74000000     6.44000000
   H     10.92000000    57.17000000    11.79000000
   H     12.35000000    58.40000000     9.69000000
   H     10.67000000    55.90000000     9.58000000
   H     12.22000000    56.00000000    10.28000000
   H     12.98000000    56.69000000     7.78000000
   H     11.35000000    56.14000000     7.45000000
   H     11.73000000    53.90000000     8.26000000
   H     13.30000000    54.34000000     8.84000000
   H     12.61000000    53.93000000     5.96000000
   H     13.52000000    52.93000000     7.04000000
   H     14.49000000    55.72000000     6.22000000
   H     15.13000000    54.70000000     7.24000000
   H     14.94000000    54.37000000     5.61000000
   N      9.16000000    58.62000000     9.42000000
   C      8.14000000    59.23000000     8.59000000
   C      8.19000000    60.75000000     8.59000000
   O      7.71000000    61.37000000     7.64000000
   C      6.77000000    58.67000000     8.95000000
   C      6.54000000    57.18000000     8.79000000
   O      7.37000000    56.47000000     8.17000000
   O      5.51000000    56.66000000     9.27000000
   H      8.89000000    58.24000000    10.32000000
   H      8.19000000    58.85000000     7.57000000
   H      5.94000000    59.10000000     8.37000000
   H      6.51000000    59.00000000     9.96000000
   N      9.02000000    61.31000000     9.47000000
   C      9.40000000    62.71000000     9.39000000
   C      8.30000000    63.70000000     9.72000000
   O      8.41000000    64.73000000     9.06000000
   H      9.49000000    60.70000000    10.13000000
   H      9.75000000    62.93000000     8.38000000
   H     10.20000000    62.84000000    10.12000000
   N      7.44000000    63.41000000    10.70000000
   C      6.25000000    64.20000000    10.96000000
   C      6.38000000    64.93000000    12.28000000
   O      5.47000000    65.70000000    12.56000000
   C      4.99000000    63.36000000    10.80000000
   C      5.22000000    62.00000000    11.45000000
   O      5.55000000    61.98000000    12.66000000
   O      5.34000000    60.95000000    10.79000000
   H      7.56000000    62.55000000    11.22000000
   H      6.19000000    64.94000000    10.16000000
   H      4.75000000    63.19000000     9.75000000
   H      4.10000000    63.91000000    11.12000000
   N      7.48000000    64.77000000    13.03000000
   C      7.55000000    65.34000000    14.36000000
   C      6.91000000    64.47000000    15.43000000
   O      6.84000000    64.96000000    16.55000000
   H      8.09000000    63.98000000    12.89000000
   H      7.03000000    66.29000000    14.41000000
   H      8.63000000    65.48000000    14.49000000
   N      6.49000000    63.24000000    15.14000000
   C      6.05000000    62.24000000    16.10000000
   C      6.58000000    60.83000000    15.85000000
   O      6.60000000    60.28000000    14.75000000
   C      4.53000000    62.14000000    16.15000000
   C      3.76000000    63.28000000    16.79000000
   O      3.98000000    61.99000000    14.86000000
   H      6.71000000    62.93000000    14.20000000
   H      6.42000000    62.63000000    17.04000000
   H      4.28000000    61.21000000    16.67000000
   H      4.71000000    62.13000000    14.25000000
   H      3.73000000    64.14000000    16.12000000
   H      2.75000000    62.89000000    16.90000000
   H      4.18000000    63.53000000    17.76000000
   N      7.12000000    60.18000000    16.88000000
   C      7.47000000    58.77000000    16.86000000
   C      6.26000000    57.94000000    17.25000000
   O      5.55000000    58.29000000    18.19000000
   C      8.64000000    58.45000000    17.79000000
   C      9.95000000    59.13000000    17.41000000
   C      8.87000000    56.95000000    17.68000000
   C     11.02000000    59.12000000    18.51000000
   H      7.13000000    60.63000000    17.78000000
   H      7.75000000    58.48000000    15.85000000
   H      8.24000000    58.65000000    18.78000000
   H      9.82000000    60.19000000    17.18000000
   H     10.35000000    58.68000000    16.50000000
   H      8.10000000    56.28000000    18.07000000
   H      9.08000000    56.62000000    16.66000000
   H      9.71000000    56.62000000    18.28000000
   H     11.97000000    59.46000000    18.11000000
   H     10.58000000    59.63000000    19.37000000
   H     11.14000000    58.06000000    18.72000000
   N      6.02000000    56.78000000    16.63000000
   C      4.89000000    55.91000000    16.92000000
   C      5.33000000    54.52000000    17.36000000
   O      6.52000000    54.21000000    17.35000000
   C      4.03000000    55.73000000    15.67000000
   C      3.68000000    57.05000000    14.99000000
   O      4.64000000    55.00000000    14.64000000
   H      6.65000000    56.48000000    15.90000000
   H      4.35000000    56.38000000    17.74000000
   H      3.05000000    55.37000000    16.00000000
   H      4.14000000    55.15000000    13.84000000
   H      2.95000000    57.69000000    15.49000000
   H      4.55000000    57.69000000    14.83000000
   H      3.14000000    56.82000000    14.07000000
   N      4.34000000    53.71000000    17.75000000
   C      4.60000000    52.42000000    18.34000000
   C      5.32000000    51.53000000    17.34000000
   O      6.03000000    50.62000000    17.76000000
   C      3.28000000    51.82000000    18.83000000
   C      3.43000000    50.63000000    19.77000000
   O      2.52000000    52.76000000    19.55000000
   H      3.42000000    54.11000000    17.84000000
   H      5.28000000    52.36000000    19.20000000
   H      2.70000000    51.38000000    18.02000000
   H      1.60000000    52.52000000    19.48000000
   H      3.62000000    49.70000000    19.24000000
   H      4.14000000    50.77000000    20.59000000
   H      2.47000000    50.52000000    20.28000000
   N      4.99000000    51.77000000    16.07000000
   C      5.46000000    51.06000000    14.90000000
   C      6.87000000    51.47000000    14.50000000
   O      7.75000000    50.62000000    14.41000000
   C      4.35000000    51.20000000    13.86000000
   C      4.73000000    50.43000000    12.60000000
   C      3.42000000    50.29000000    11.83000000
   C      3.68000000    49.57000000    10.51000000
   N      4.63000000    50.27000000     9.63000000
   H      4.51000000    52.66000000    15.94000000
   H      5.46000000    50.00000000    15.15000000
   H      4.06000000    52.23000000    13.65000000
   H      3.49000000    50.67000000    14.26000000
   H      4.99000000    49.41000000    12.89000000
   H      5.40000000    50.96000000    11.92000000
   H      3.15000000    51.33000000    11.64000000
   H      2.65000000    49.80000000    12.43000000
   H      2.73000000    49.39000000    10.02000000
   H      4.03000000    48.56000000    10.71000000
   H      5.60000000    50.21000000     9.90000000
   H      4.60000000    49.83000000     8.72000000
   H      4.43000000    51.26000000     9.67000000
   N      7.14000000    52.77000000    14.36000000
   C      8.47000000    53.34000000    14.41000000
   C      9.41000000    52.92000000    15.54000000
   O     10.55000000    52.57000000    15.24000000
   C      8.33000000    54.86000000    14.32000000
   C      7.92000000    55.33000000    12.92000000
   C      7.88000000    56.85000000    12.86000000
   O      7.94000000    57.39000000    11.74000000
   O      7.62000000    57.61000000    13.81000000
   H      6.39000000    53.45000000    14.34000000
   H      8.98000000    53.08000000    13.48000000
   H      9.29000000    55.29000000    14.59000000
   H      7.56000000    55.20000000    15.01000000
   H      6.90000000    55.00000000    12.71000000
   H      8.68000000    54.96000000    12.24000000
   N      8.90000000    52.84000000    16.77000000
   C      9.66000000    52.54000000    17.97000000
   H     10.55800000    53.15800000    17.99500000
   H      9.05100000    52.75000000    18.84900000
   H      9.94400000    51.48800000    17.96700000
   H      8.00000000    53.25000000    16.96000000
  Ca      6.28000000    59.34000000    12.46000000
   O      3.43000000    59.47000000    12.78000000
   H      2.79000000    59.02000000    12.24000000
   H      3.28000000    60.40000000    12.61000000
   O      4.82000000    57.21000000    11.80000000
   H      5.07000000    57.02000000    10.90000000
   H      4.19000000    56.52000000    12.02000000

Ca 1.00



