%chk=loop1.cluster65.chk
%nprocshared=20
%mem=10GB
%nosave
#b3lyp/svp scf=(tight,noincore,xqc) Test 
#IOP(5/87=12) Density=Current Pop=(MK,readradii) iop(6/33=2) iop(6/42=6)

loop1.cluster65 

   0  1 
   C     42.91000000    55.35000000     9.43000000
   C     43.38000000    55.19000000     7.99000000
   O     42.51000000    55.34000000     7.14000000
   H     41.88100000    55.00100000     9.51700000
   H     43.54900000    54.76200000    10.08900000
   H     42.96200000    56.40100000     9.71500000
   N     44.67000000    55.06000000     7.71000000
   C     45.12000000    55.31000000     6.35000000
   C     44.69000000    56.65000000     5.78000000
   O     45.31000000    57.64000000     6.16000000
   C     44.80000000    54.17000000     5.40000000
   C     45.34000000    52.80000000     5.78000000
   O     46.34000000    52.65000000     6.52000000
   O     44.88000000    51.82000000     5.15000000
   H     45.33000000    54.88000000     8.45000000
   H     46.21000000    55.26000000     6.42000000
   H     45.27000000    54.30000000     4.42000000
   H     43.72000000    54.01000000     5.37000000
   N     43.77000000    56.73000000     4.81000000
   C     43.42000000    57.82000000     3.92000000
   C     44.54000000    58.40000000     3.07000000
   O     44.47000000    58.42000000     1.85000000
   C     42.72000000    58.89000000     4.75000000
   C     42.10000000    59.94000000     3.84000000
   C     41.47000000    61.15000000     4.53000000
   C     41.04000000    62.16000000     3.46000000
   N     39.92000000    62.97000000     3.95000000
   H     43.21000000    55.89000000     4.73000000
   H     42.62000000    57.42000000     3.28000000
   H     43.48000000    59.46000000     5.29000000
   H     41.96000000    58.50000000     5.43000000
   H     41.31000000    59.48000000     3.24000000
   H     42.83000000    60.35000000     3.14000000
   H     42.25000000    61.59000000     5.15000000
   H     40.63000000    60.84000000     5.14000000
   H     40.72000000    61.69000000     2.53000000
   H     41.86000000    62.85000000     3.24000000
   H     39.81000000    63.16000000     4.93000000
   H     39.86000000    63.79000000     3.35000000
   H     39.04000000    62.51000000     3.75000000
   N     45.69000000    58.84000000     3.60000000
   C     46.94000000    59.18000000     2.96000000
   C     48.09000000    58.66000000     3.81000000
   O     49.24000000    58.63000000     3.38000000
   C     46.99000000    60.66000000     2.59000000
   C     47.93000000    61.03000000     1.45000000
   O     48.45000000    60.15000000     0.73000000
   O     48.24000000    62.24000000     1.32000000
   H     45.67000000    58.77000000     4.61000000
   H     46.97000000    58.68000000     1.99000000
   H     47.30000000    61.21000000     3.48000000
   H     46.03000000    60.97000000     2.17000000
   N     47.85000000    58.32000000     5.08000000
   C     48.81000000    57.75000000     6.00000000
   C     49.26000000    56.33000000     5.69000000
   O     49.63000000    55.55000000     6.57000000
   H     46.93000000    58.49000000     5.45000000
   H     48.32000000    57.65000000     6.97000000
   H     49.69000000    58.39000000     6.11000000
   N     49.02000000    55.82000000     4.48000000
   C     49.08000000    54.43000000     4.09000000
   C     50.54000000    54.01000000     4.06000000
   O     51.46000000    54.79000000     3.81000000
   C     48.28000000    54.28000000     2.80000000
   C     48.72000000    55.28000000     1.74000000
   O     48.29000000    56.45000000     1.84000000
   O     49.54000000    54.93000000     0.86000000
   H     49.00000000    56.56000000     3.78000000
   H     48.60000000    53.83000000     4.86000000
   H     47.20000000    54.31000000     2.95000000
   H     48.51000000    53.27000000     2.47000000
   N     50.80000000    52.72000000     4.32000000
   C     52.11000000    52.25000000     4.71000000
   C     52.70000000    52.81000000     5.99000000
   O     53.82000000    52.45000000     6.34000000
   H     50.04000000    52.07000000     4.23000000
   H     52.80000000    52.49000000     3.90000000
   H     52.07000000    51.16000000     4.78000000
   N     52.02000000    53.75000000     6.67000000
   C     52.47000000    54.42000000     7.87000000
   C     52.99000000    55.84000000     7.75000000
   O     53.07000000    56.38000000     6.65000000
   C     51.40000000    54.24000000     8.96000000
   C     50.63000000    52.93000000     8.92000000
   O     51.98000000    54.35000000    10.24000000
   H     51.24000000    54.18000000     6.19000000
   H     53.27000000    53.77000000     8.22000000
   H     50.83000000    55.16000000     8.81000000
   H     52.50000000    53.56000000    10.40000000
   H     49.89000000    52.96000000     8.12000000
   H     51.31000000    52.09000000     8.75000000
   H     50.15000000    52.70000000     9.87000000
   N     53.36000000    56.48000000     8.86000000
   C     53.60000000    57.91000000     8.86000000
   C     55.08000000    58.23000000     8.70000000
   O     55.40000000    59.40000000     8.54000000
   C     52.93000000    58.73000000     9.95000000
   C     53.58000000    58.64000000    11.33000000
   C     51.45000000    58.37000000     9.87000000
   C     53.68000000    57.32000000    12.08000000
   H     53.23000000    56.00000000     9.74000000
   H     53.21000000    58.22000000     7.90000000
   H     52.98000000    59.76000000     9.58000000
   H     53.10000000    59.37000000    11.98000000
   H     54.62000000    58.94000000    11.16000000
   H     51.17000000    57.46000000    10.41000000
   H     50.92000000    59.30000000    10.06000000
   H     51.14000000    58.29000000     8.83000000
   H     54.18000000    56.54000000    11.50000000
   H     54.31000000    57.52000000    12.95000000
   H     52.73000000    56.86000000    12.37000000
   N     55.95000000    57.21000000     8.77000000
   C     57.38000000    57.38000000     8.66000000
   C     58.03000000    57.22000000    10.03000000
   O     57.74000000    56.29000000    10.77000000
   C     58.04000000    56.43000000     7.66000000
   C     57.89000000    56.83000000     6.19000000
   O     59.44000000    56.41000000     7.86000000
   H     55.59000000    56.27000000     8.83000000
   H     57.75000000    58.35000000     8.33000000
   H     57.71000000    55.42000000     7.89000000
   H     59.74000000    55.51000000     7.94000000
   H     58.13000000    56.03000000     5.49000000
   H     56.84000000    57.07000000     6.02000000
   H     58.44000000    57.74000000     5.95000000
   N     58.71000000    58.27000000    10.50000000
   C     59.61000000    58.25000000    11.64000000
   C     58.84000000    58.34000000    12.95000000
   O     59.07000000    57.46000000    13.77000000
   C     60.67000000    59.34000000    11.53000000
   C     61.70000000    59.47000000    12.65000000
   O     60.13000000    60.64000000    11.48000000
   H     58.81000000    59.07000000     9.90000000
   H     60.08000000    57.27000000    11.62000000
   H     61.23000000    59.22000000    10.60000000
   H     59.69000000    60.78000000    10.64000000
   H     61.21000000    59.72000000    13.59000000
   H     62.18000000    58.51000000    12.85000000
   H     62.50000000    60.17000000    12.43000000
   N     57.97000000    59.35000000    13.09000000
   C     57.00000000    59.34000000    14.16000000
   C     55.73000000    60.04000000    13.71000000
   O     55.69000000    60.78000000    12.73000000
   C     57.59000000    59.93000000    15.44000000
   C     58.10000000    61.37000000    15.41000000
   C     58.69000000    61.75000000    16.77000000
   C     60.00000000    61.04000000    17.08000000
   N     60.39000000    61.45000000    18.44000000
   H     57.94000000    60.10000000    12.41000000
   H     56.77000000    58.28000000    14.29000000
   H     58.35000000    59.25000000    15.81000000
   H     56.74000000    59.92000000    16.12000000
   H     57.34000000    62.05000000    15.01000000
   H     58.83000000    61.43000000    14.61000000
   H     57.94000000    61.54000000    17.54000000
   H     58.91000000    62.81000000    16.80000000
   H     60.75000000    61.18000000    16.30000000
   H     59.79000000    59.97000000    17.15000000
   H     61.32000000    61.14000000    18.70000000
   H     60.41000000    62.46000000    18.47000000
   H     59.72000000    61.21000000    19.15000000
   N     54.72000000    59.98000000    14.59000000
   C     53.50000000    60.74000000    14.48000000
   C     52.32000000    59.86000000    14.85000000
   O     51.33000000    59.99000000    14.14000000
   C     53.41000000    62.05000000    15.26000000
   C     54.15000000    63.14000000    14.47000000
   C     54.12000000    64.53000000    15.08000000
   O     55.19000000    65.16000000    15.28000000
   O     53.02000000    65.09000000    15.23000000
   H     54.90000000    59.45000000    15.44000000
   H     53.30000000    60.96000000    13.43000000
   H     53.84000000    61.91000000    16.25000000
   H     52.40000000    62.43000000    15.38000000
   H     53.69000000    63.25000000    13.49000000
   H     55.20000000    62.82000000    14.40000000
   N     52.29000000    58.99000000    15.86000000
   C     52.94000000    59.07000000    17.16000000
   H     53.83500000    59.68600000    17.08100000
   H     52.25600000    59.51600000    17.88200000
   H     53.21700000    58.06900000    17.49100000
   H     51.45000000    58.45000000    15.76000000
  Ca     50.00000000    58.02000000     0.81000000
   O     48.43000000    57.33000000    -1.15400000
   H     48.32000000    57.73000000    -2.01400000
   H     47.56000000    56.99000000    -0.93400000
   O     51.02000000    56.12000000    -0.92400000
   H     51.90000000    55.75000000    -0.92400000
   H     50.48000000    55.45000000    -0.51400000
   O     51.77000000    56.87000000     2.22000000
   H     52.09000000    57.57000000     2.79000000
   H     51.93000000    56.07000000     2.71000000
   O     51.11000000    59.20000000    -1.41400000
   H     51.98000000    59.59000000    -1.36400000
   H     50.72000000    59.58000000    -2.20400000
   O     51.62000000    60.00000000     1.42000000
   H     51.48000000    60.90000000     1.12000000
   H     52.39000000    60.05000000     1.98000000

Ca 1.00



