%chk=loop3.cluster177.chk
%nprocshared=20
%mem=10GB
%nosave
#b3lyp/svp scf=(tight,noincore,xqc) Test 
#IOP(5/87=12) Density=Current Pop=(MK,readradii) iop(6/33=2) iop(6/42=6)

loop3.cluster177 

   0  1 
   C    109.30000000   -24.67000000    68.01000000
   C    108.38000000   -25.35000000    67.02000000
   O    107.20000000   -25.02000000    66.97000000
   H    110.18900000   -24.31100000    67.49100000
   H    108.78200000   -23.82800000    68.46900000
   H    109.59300000   -25.38100000    68.78200000
   N    108.91000000   -26.25000000    66.18000000
   C    108.23000000   -26.87000000    65.06000000
   C    107.48000000   -28.11000000    65.51000000
   O    108.08000000   -29.12000000    65.87000000
   C    109.18000000   -27.22000000    63.92000000
   C    108.46000000   -27.56000000    62.62000000
   O    108.49000000   -26.86000000    61.58000000
   O    107.68000000   -28.53000000    62.64000000
   H    109.91000000   -26.36000000    66.09000000
   H    107.58000000   -26.11000000    64.62000000
   H    109.73000000   -28.12000000    64.22000000
   H    109.90000000   -26.41000000    63.80000000
   N    106.16000000   -28.09000000    65.28000000
   C    105.23000000   -29.01000000    65.91000000
   C    105.31000000   -30.40000000    65.30000000
   O    104.88000000   -31.31000000    66.01000000
   C    103.87000000   -28.31000000    65.94000000
   C    103.77000000   -26.91000000    66.51000000
   C    104.05000000   -26.81000000    68.01000000
   C    103.65000000   -25.43000000    68.52000000
   N    103.79000000   -25.16000000    69.96000000
   H    105.76000000   -27.22000000    64.96000000
   H    105.55000000   -29.11000000    66.95000000
   H    103.20000000   -29.02000000    66.42000000
   H    103.52000000   -28.09000000    64.93000000
   H    102.83000000   -26.40000000    66.31000000
   H    104.47000000   -26.22000000    66.02000000
   H    105.13000000   -26.87000000    68.12000000
   H    103.52000000   -27.56000000    68.60000000
   H    102.67000000   -25.14000000    68.16000000
   H    104.24000000   -24.73000000    67.92000000
   H    103.94000000   -24.23000000    70.31000000
   H    102.97000000   -25.55000000    70.41000000
   H    104.51000000   -25.73000000    70.38000000
   N    105.75000000   -30.51000000    64.05000000
   C    105.81000000   -31.85000000    63.51000000
   C    107.24000000   -32.23000000    63.15000000
   O    107.53000000   -33.41000000    62.98000000
   C    104.91000000   -32.01000000    62.29000000
   C    104.89000000   -30.76000000    61.42000000
   O    103.80000000   -30.35000000    60.94000000
   O    105.95000000   -30.18000000    61.10000000
   H    106.15000000   -29.71000000    63.58000000
   H    105.55000000   -32.64000000    64.22000000
   H    103.90000000   -32.19000000    62.68000000
   H    105.22000000   -32.90000000    61.74000000
   N    108.15000000   -31.28000000    62.86000000
   C    109.49000000   -31.50000000    62.37000000
   C    109.56000000   -31.63000000    60.85000000
   O    110.64000000   -31.90000000    60.34000000
   H    107.83000000   -30.33000000    62.75000000
   H    109.88000000   -32.41000000    62.83000000
   H    110.15000000   -30.72000000    62.76000000
   N    108.45000000   -31.49000000    60.13000000
   C    108.42000000   -31.54000000    58.68000000
   C    108.59000000   -30.12000000    58.16000000
   O    108.08000000   -29.12000000    58.67000000
   C    107.29000000   -32.35000000    58.05000000
   C    107.17000000   -32.16000000    56.55000000
   N    106.14000000   -31.47000000    56.04000000
   O    107.96000000   -32.74000000    55.82000000
   H    107.62000000   -31.18000000    60.63000000
   H    109.32000000   -32.01000000    58.28000000
   H    106.32000000   -32.17000000    58.51000000
   H    107.58000000   -33.37000000    58.32000000
   H    105.41000000   -31.14000000    56.65000000
   H    106.08000000   -31.38000000    55.03000000
   N    109.41000000   -29.87000000    57.14000000
   C    109.77000000   -28.60000000    56.54000000
   C    110.21000000   -28.63000000    55.08000000
   O    110.86000000   -27.70000000    54.61000000
   H    109.81000000   -30.70000000    56.72000000
   H    110.54000000   -28.10000000    57.11000000
   H    108.85000000   -28.02000000    56.62000000
   N    109.94000000   -29.72000000    54.37000000
   C    110.38000000   -29.99000000    53.01000000
   C    109.38000000   -29.28000000    52.11000000
   O    108.18000000   -29.29000000    52.36000000
   C    110.42000000   -31.48000000    52.69000000
   C    111.08000000   -31.74000000    51.36000000
   C    110.29000000   -32.02000000    50.23000000
   C    112.47000000   -31.81000000    51.23000000
   C    110.91000000   -32.38000000    49.03000000
   C    113.09000000   -32.14000000    50.02000000
   C    112.31000000   -32.33000000    48.87000000
   O    112.90000000   -32.49000000    47.65000000
   H    109.46000000   -30.48000000    54.83000000
   H    111.33000000   -29.49000000    52.82000000
   H    109.39000000   -31.83000000    52.76000000
   H    111.02000000   -32.02000000    53.43000000
   H    109.21000000   -32.02000000    50.17000000
   H    113.02000000   -31.77000000    52.16000000
   H    110.30000000   -32.45000000    48.14000000
   H    114.14000000   -32.41000000    49.99000000
   H    113.85000000   -32.50000000    47.79000000
   N    109.91000000   -28.51000000    51.16000000
   C    109.37000000   -27.32000000    50.54000000
   C    108.26000000   -27.54000000    49.53000000
   O    107.21000000   -28.16000000    49.73000000
   C    109.25000000   -26.08000000    51.43000000
   C    110.61000000   -25.70000000    52.01000000
   C    108.10000000   -26.17000000    52.43000000
   C    111.50000000   -24.93000000    51.05000000
   H    110.90000000   -28.52000000    50.98000000
   H    110.21000000   -27.01000000    49.92000000
   H    108.93000000   -25.32000000    50.72000000
   H    111.02000000   -26.67000000    52.28000000
   H    110.47000000   -24.98000000    52.82000000
   H    107.18000000   -26.60000000    52.03000000
   H    108.27000000   -26.83000000    53.28000000
   H    107.90000000   -25.12000000    52.66000000
   H    111.72000000   -25.61000000    50.22000000
   H    110.89000000   -24.15000000    50.59000000
   H    112.51000000   -24.65000000    51.35000000
   N    108.42000000   -26.89000000    48.38000000
   C    107.42000000   -26.75000000    47.34000000
   C    107.88000000   -26.65000000    45.89000000
   O    107.19000000   -27.12000000    45.00000000
   C    106.58000000   -25.54000000    47.73000000
   O    107.36000000   -24.38000000    47.53000000
   H    109.28000000   -26.38000000    48.25000000
   H    106.67000000   -27.54000000    47.36000000
   H    106.32000000   -25.52000000    48.79000000
   H    105.72000000   -25.45000000    47.07000000
   H    106.89000000   -23.61000000    47.85000000
   N    109.03000000   -26.01000000    45.63000000
   C    109.59000000   -25.56000000    44.37000000
   C    108.68000000   -25.14000000    43.23000000
   O    108.58000000   -25.90000000    42.28000000
   C    110.75000000   -26.39000000    43.83000000
   H    109.55000000   -25.70000000    46.44000000
   H    110.12000000   -24.66000000    44.69000000
   H    110.35000000   -27.23000000    43.26000000
   H    111.29000000   -25.81000000    43.08000000
   H    111.39000000   -26.76000000    44.63000000
   N    107.85000000   -24.10000000    43.41000000
   C    107.83000000   -23.13000000    44.49000000
   C    108.89000000   -22.09000000    44.16000000
   O    109.02000000   -21.58000000    43.05000000
   C    106.43000000   -22.53000000    44.58000000
   H    107.19000000   -23.97000000    42.66000000
   H    108.05000000   -23.67000000    45.41000000
   H    106.23000000   -21.68000000    45.23000000
   H    106.36000000   -22.12000000    43.57000000
   H    105.71000000   -23.30000000    44.85000000
   N    109.81000000   -21.64000000    45.02000000
   C    110.05000000   -22.00000000    46.41000000
   C    111.53000000   -22.14000000    46.74000000
   O    111.90000000   -22.96000000    47.58000000
   C    109.45000000   -21.02000000    47.41000000
   C    109.65000000   -21.43000000    48.86000000
   C    108.83000000   -20.45000000    49.69000000
   O    107.60000000   -20.30000000    49.53000000
   O    109.46000000   -19.86000000    50.60000000
   H    110.49000000   -20.96000000    44.73000000
   H    109.62000000   -22.98000000    46.63000000
   H    108.40000000   -21.08000000    47.13000000
   H    109.76000000   -19.99000000    47.23000000
   H    110.68000000   -21.53000000    49.20000000
   H    109.21000000   -22.42000000    49.01000000
   N    112.36000000   -21.37000000    46.04000000
   C    113.81000000   -21.38000000    46.14000000
   H    114.20300000   -20.41900000    45.80800000
   H    114.10200000   -21.55300000    47.17600000
   H    114.21300000   -22.17400000    45.51100000
   H    111.99000000   -20.63000000    45.46000000
  Ca    106.45400000   -27.71400000    60.25000000
   O    104.91400000   -27.75400000    58.22000000
   H    104.79400000   -28.11400000    57.34000000
   H    104.44400000   -26.91400000    58.20000000
   O    104.12400000   -27.61400000    61.41000000
   H    103.87400000   -28.53400000    61.28000000
   H    103.32400000   -27.19400000    61.74000000
   O    105.77400000   -25.29400000    60.78000000
   H    104.83400000   -25.12400000    60.78000000
   H    106.17400000   -24.42400000    60.89000000
   O    107.73400000   -26.13400000    58.53000000
   H    108.67400000   -26.01400000    58.38000000
   H    107.33400000   -25.30400000    58.28000000

Ca 1.00



