%chk=loop3.cluster61.chk
%nprocshared=20
%mem=10GB
%nosave
#b3lyp/svp scf=(tight,noincore,xqc) Test 
#IOP(5/87=12) Density=Current Pop=(MK,readradii) iop(6/33=2) iop(6/42=6)

loop3.cluster61 

   0  1 
   C     96.50000000    45.29000000   101.84000000
   C     97.72000000    45.85000000   101.12000000
   O     97.70000000    46.07000000    99.91000000
   H     95.65400000    45.26400000   101.15300000
   H     96.71500000    44.28000000   102.18900000
   H     96.25700000    45.92500000   102.69200000
   N     98.81000000    45.97000000   101.88000000
   C    100.10000000    46.45000000   101.41000000
   C    101.28000000    45.76000000   102.08000000
   O    101.19000000    45.11000000   103.13000000
   C    100.19000000    47.95000000   101.64000000
   C    100.16000000    48.38000000   103.10000000
   O    100.41000000    49.59000000   103.25000000
   O     99.84000000    47.63000000   104.05000000
   H     98.84000000    45.71000000   102.86000000
   H    100.17000000    46.23000000   100.35000000
   H     99.50000000    48.54000000   101.03000000
   H    101.14000000    48.27000000   101.20000000
   N    102.46000000    45.89000000   101.48000000
   C    103.80000000    45.73000000   102.00000000
   C    104.67000000    44.81000000   101.15000000
   O    105.57000000    44.15000000   101.67000000
   C    104.45000000    47.11000000   101.89000000
   C    103.87000000    48.04000000   102.95000000
   C    104.51000000    49.41000000   103.06000000
   C    104.06000000    50.23000000   104.26000000
   N    102.69000000    50.77000000   104.26000000
   H    102.37000000    46.39000000   100.61000000
   H    103.88000000    45.40000000   103.04000000
   H    104.33000000    47.53000000   100.90000000
   H    105.51000000    46.97000000   102.12000000
   H    104.07000000    47.54000000   103.90000000
   H    102.79000000    48.11000000   102.79000000
   H    104.28000000    49.98000000   102.15000000
   H    105.58000000    49.21000000   103.10000000
   H    104.74000000    51.08000000   104.29000000
   H    104.26000000    49.53000000   105.06000000
   H    102.67000000    51.59000000   103.67000000
   H    101.95000000    50.12000000   104.03000000
   H    102.43000000    51.00000000   105.21000000
   N    104.40000000    44.70000000    99.85000000
   C    104.75000000    43.61000000    98.96000000
   C    105.17000000    44.13000000    97.59000000
   O    106.30000000    43.83000000    97.22000000
   C    103.70000000    42.52000000    98.84000000
   C    102.26000000    43.00000000    98.73000000
   O    101.89000000    43.93000000    97.99000000
   O    101.44000000    42.26000000    99.32000000
   H    103.81000000    45.41000000    99.45000000
   H    105.62000000    43.11000000    99.38000000
   H    103.70000000    42.00000000    99.80000000
   H    103.88000000    41.81000000    98.02000000
   N    104.37000000    44.83000000    96.77000000
   C    104.86000000    45.54000000    95.62000000
   C    103.91000000    46.70000000    95.31000000
   O    102.89000000    46.91000000    95.97000000
   H    103.50000000    45.15000000    97.17000000
   H    104.81000000    44.80000000    94.82000000
   H    105.86000000    45.95000000    95.78000000
   N    104.07000000    47.44000000    94.22000000
   C    105.20000000    47.41000000    93.32000000
   C    104.67000000    47.45000000    91.89000000
   O    103.86000000    48.28000000    91.48000000
   C    105.99000000    48.69000000    93.60000000
   C    107.13000000    48.79000000    92.59000000
   N    108.23000000    48.05000000    92.71000000
   O    107.01000000    49.55000000    91.63000000
   H    103.27000000    48.00000000    93.95000000
   H    105.86000000    46.56000000    93.47000000
   H    106.26000000    48.76000000    94.65000000
   H    105.32000000    49.54000000    93.55000000
   H    108.27000000    47.31000000    93.39000000
   H    108.99000000    48.26000000    92.07000000
   N    105.11000000    46.57000000    91.00000000
   C    105.91000000    45.37000000    91.16000000
   C    105.05000000    44.20000000    91.62000000
   O    104.02000000    44.39000000    92.27000000
   H    104.92000000    46.83000000    90.04000000
   H    106.73000000    45.54000000    91.86000000
   H    106.38000000    45.18000000    90.19000000
   N    105.50000000    42.97000000    91.35000000
   C    104.69000000    41.79000000    91.54000000
   C    105.58000000    40.56000000    91.65000000
   O    106.45000000    40.30000000    90.82000000
   C    103.75000000    41.64000000    90.34000000
   C    102.66000000    42.65000000    90.13000000
   C    101.64000000    42.81000000    91.09000000
   C    102.80000000    43.53000000    89.05000000
   C    100.84000000    43.95000000    91.05000000
   C    101.90000000    44.59000000    88.89000000
   C    101.00000000    44.82000000    89.95000000
   O    100.26000000    45.97000000    89.87000000
   H    106.40000000    42.80000000    90.93000000
   H    104.07000000    41.79000000    92.44000000
   H    103.25000000    40.67000000    90.38000000
   H    104.38000000    41.61000000    89.45000000
   H    101.49000000    42.03000000    91.81000000
   H    103.59000000    43.31000000    88.35000000
   H    100.08000000    44.08000000    91.80000000
   H    101.92000000    45.17000000    87.98000000
   H    100.45000000    46.46000000    89.07000000
   N    105.19000000    39.58000000    92.46000000
   C    105.75000000    38.25000000    92.40000000
   C    104.99000000    37.39000000    91.39000000
   O    105.67000000    36.54000000    90.82000000
   C    105.98000000    37.71000000    93.80000000
   C    104.73000000    37.09000000    94.43000000
   C    107.17000000    36.76000000    93.88000000
   C    104.79000000    36.80000000    95.92000000
   H    104.33000000    39.83000000    92.93000000
   H    106.74000000    38.30000000    91.96000000
   H    106.14000000    38.59000000    94.42000000
   H    104.59000000    36.16000000    93.87000000
   H    103.90000000    37.78000000    94.26000000
   H    106.93000000    35.93000000    93.21000000
   H    108.11000000    37.20000000    93.55000000
   H    107.37000000    36.47000000    94.91000000
   H    104.73000000    37.71000000    96.51000000
   H    103.95000000    36.14000000    96.13000000
   H    105.72000000    36.26000000    96.11000000
   N    103.73000000    37.69000000    91.05000000
   C    102.94000000    36.97000000    90.07000000
   C    102.33000000    35.64000000    90.50000000
   O    102.01000000    34.81000000    89.65000000
   C    101.92000000    37.97000000    89.54000000
   O    100.99000000    38.17000000    90.58000000
   H    103.32000000    38.51000000    91.46000000
   H    103.59000000    36.65000000    89.25000000
   H    101.41000000    37.58000000    88.66000000
   H    102.41000000    38.85000000    89.13000000
   H    101.46000000    38.61000000    91.29000000
   N    102.40000000    35.31000000    91.80000000
   C    101.71000000    34.15000000    92.33000000
   C    101.13000000    34.46000000    93.69000000
   O    101.86000000    35.01000000    94.51000000
   C    102.64000000    32.94000000    92.34000000
   H    102.77000000    35.97000000    92.47000000
   H    100.88000000    33.90000000    91.67000000
   H    103.13000000    32.96000000    91.37000000
   H    103.30000000    32.91000000    93.21000000
   H    101.97000000    32.07000000    92.34000000
   N     99.89000000    34.03000000    93.95000000
   C     99.14000000    34.09000000    95.19000000
   C     99.01000000    35.53000000    95.64000000
   O     99.04000000    35.74000000    96.85000000
   C     99.76000000    33.14000000    96.21000000
   H     99.39000000    33.67000000    93.15000000
   H     98.12000000    33.76000000    94.97000000
   H     99.22000000    33.37000000    97.13000000
   H     99.60000000    32.11000000    95.91000000
   H    100.79000000    33.45000000    96.42000000
   N     98.87000000    36.55000000    94.79000000
   C     98.63000000    37.94000000    95.14000000
   C     97.21000000    38.46000000    94.96000000
   O     97.07000000    39.65000000    95.23000000
   C     99.67000000    38.70000000    94.32000000
   C    101.14000000    38.66000000    94.70000000
   C    101.96000000    39.56000000    93.79000000
   O    102.53000000    40.59000000    94.21000000
   O    101.97000000    39.37000000    92.55000000
   H     98.70000000    36.28000000    93.83000000
   H     98.84000000    38.11000000    96.20000000
   H     99.45000000    39.76000000    94.45000000
   H     99.52000000    38.43000000    93.27000000
   H    101.56000000    37.66000000    94.66000000
   H    101.24000000    39.11000000    95.69000000
   N     96.28000000    37.73000000    94.34000000
   C     94.97000000    38.21000000    93.93000000
   H     94.27800000    38.13900000    94.76900000
   H     95.04700000    39.24900000    93.61100000
   H     94.60200000    37.60200000    93.10400000
   H     96.37000000    36.75000000    94.12000000
  Ca     99.74400000    43.83000000    96.44000000
   O     98.02000000    41.76000000    96.83000000
   H     97.56000000    41.40000000    96.07000000
   H     97.70000000    41.25000000    97.57000000
   O    101.14400000    41.59000000    96.03000000
   H    101.75400000    41.33000000    95.33000000
   H    100.99400000    40.80000000    96.53000000
   O     99.00000000    42.83000000    94.05000000
   H     99.24000000    42.08000000    93.50000000
   H     98.25000000    43.21000000    93.60000000
   O     99.35000000    45.98000000    97.92000000
   H     98.65000000    46.03000000    98.57000000
   H     99.70000000    46.87000000    97.88000000
   O    100.16400000    45.77000000    94.79000000
   H     99.72400000    46.60000000    94.99000000
   H    100.58400000    45.92000000    93.95000000
   O     99.19000000    43.29000000    99.23000000
   H     98.78000000    42.76000000    99.90000000
   H    100.11000000    43.02000000    99.23000000
   O     97.37000000    45.29000000    95.55000000
   H     97.58000000    46.11000000    95.12000000
   H     96.46000000    45.40000000    95.84000000

Ca 1.00



