%chk=loop2.cluster169.chk
%nprocshared=20
%mem=10GB
%nosave
#b3lyp/svp scf=(tight,noincore,xqc) Test 
#IOP(5/87=12) Density=Current Pop=(MK,readradii) iop(6/33=2) iop(6/42=6)

loop2.cluster169 

   -2  1 
   C     85.52000000    51.37000000    60.36000000
   C     85.25000000    51.85000000    58.93000000
   O     84.47000000    51.18000000    58.26000000
   H     86.29900000    51.98600000    60.80800000
   H     84.60700000    51.45300000    60.95000000
   H     85.84700000    50.33000000    60.33900000
   N     85.83000000    52.98000000    58.54000000
   C     85.84000000    53.55000000    57.20000000
   C     84.44000000    54.06000000    56.86000000
   O     83.98000000    55.03000000    57.44000000
   C     86.87000000    54.65000000    57.03000000
   C     86.74000000    55.36000000    55.68000000
   O     86.45000000    56.57000000    55.65000000
   O     87.04000000    54.79000000    54.61000000
   H     86.41000000    53.45000000    59.23000000
   H     86.15000000    52.78000000    56.49000000
   H     87.84000000    54.16000000    57.10000000
   H     86.84000000    55.45000000    57.77000000
   N     83.83000000    53.40000000    55.87000000
   C     82.49000000    53.71000000    55.40000000
   C     81.71000000    52.41000000    55.36000000
   O     82.27000000    51.38000000    55.00000000
   C     82.64000000    54.36000000    54.02000000
   H     84.27000000    52.59000000    55.48000000
   H     82.04000000    54.42000000    56.09000000
   H     83.42000000    55.13000000    54.02000000
   H     82.99000000    53.74000000    53.20000000
   H     81.70000000    54.83000000    53.75000000
   N     80.41000000    52.36000000    55.67000000
   C     79.46000000    53.41000000    55.94000000
   C     79.78000000    54.30000000    57.14000000
   O     80.45000000    53.87000000    58.08000000
   C     78.05000000    52.83000000    55.99000000
   C     77.74000000    51.67000000    56.91000000
   O     78.09000000    50.50000000    56.62000000
   O     77.19000000    51.95000000    58.00000000
   H     80.00000000    51.45000000    55.48000000
   H     79.60000000    54.17000000    55.16000000
   H     77.82000000    52.47000000    54.99000000
   H     77.32000000    53.61000000    56.21000000
   N     79.31000000    55.55000000    57.21000000
   C     79.46000000    56.45000000    58.33000000
   C     80.87000000    56.96000000    58.62000000
   O     81.72000000    56.93000000    57.73000000
   H     78.80000000    55.94000000    56.43000000
   H     79.19000000    55.98000000    59.27000000
   H     78.86000000    57.34000000    58.14000000
   N     81.13000000    57.52000000    59.80000000
   C     80.18000000    57.94000000    60.80000000
   C     80.52000000    57.27000000    62.13000000
   O     79.86000000    57.44000000    63.15000000
   C     80.35000000    59.45000000    60.91000000
   C     79.89000000    60.09000000    59.61000000
   N     80.65000000    60.96000000    58.95000000
   O     78.83000000    59.72000000    59.11000000
   H     82.11000000    57.65000000    60.02000000
   H     79.15000000    57.68000000    60.55000000
   H     81.38000000    59.73000000    61.14000000
   H     79.67000000    59.79000000    61.70000000
   H     81.65000000    60.91000000    59.09000000
   H     80.31000000    61.51000000    58.17000000
   N     81.67000000    56.59000000    62.23000000
   C     82.32000000    56.22000000    63.47000000
   C     81.74000000    55.00000000    64.18000000
   O     82.37000000    54.52000000    65.11000000
   H     82.03000000    56.26000000    61.35000000
   H     82.44000000    57.05000000    64.16000000
   H     83.31000000    55.90000000    63.15000000
   N     80.60000000    54.41000000    63.81000000
   C     79.92000000    53.35000000    64.52000000
   C     79.54000000    52.12000000    63.70000000
   O     79.18000000    52.23000000    62.53000000
   C     78.71000000    53.83000000    65.32000000
   C     78.90000000    55.03000000    66.23000000
   O     77.66000000    54.20000000    64.46000000
   H     80.25000000    54.86000000    62.97000000
   H     80.65000000    52.95000000    65.22000000
   H     78.21000000    53.06000000    65.91000000
   H     78.00000000    54.96000000    63.98000000
   H     79.46000000    55.80000000    65.72000000
   H     78.01000000    55.62000000    66.46000000
   H     79.43000000    54.74000000    67.14000000
   N     79.59000000    50.98000000    64.41000000
   C     79.25000000    49.65000000    63.95000000
   C     77.83000000    49.27000000    64.35000000
   O     77.31000000    49.89000000    65.27000000
   C     80.22000000    48.62000000    64.54000000
   C     81.64000000    48.81000000    64.02000000
   C     80.33000000    48.61000000    66.06000000
   C     81.85000000    48.86000000    62.50000000
   H     79.94000000    51.15000000    65.34000000
   H     79.32000000    49.62000000    62.87000000
   H     79.81000000    47.62000000    64.43000000
   H     82.30000000    48.07000000    64.46000000
   H     82.00000000    49.78000000    64.36000000
   H     80.79000000    47.68000000    66.37000000
   H     80.85000000    49.50000000    66.42000000
   H     79.31000000    48.69000000    66.44000000
   H     81.67000000    47.84000000    62.18000000
   H     81.09000000    49.45000000    61.98000000
   H     82.81000000    49.25000000    62.18000000
   N     77.24000000    48.33000000    63.60000000
   C     75.90000000    47.83000000    63.86000000
   C     75.72000000    46.34000000    63.61000000
   O     76.36000000    45.79000000    62.71000000
   C     74.84000000    48.60000000    63.08000000
   C     75.33000000    49.08000000    61.72000000
   O     76.11000000    50.04000000    61.61000000
   O     75.16000000    48.32000000    60.75000000
   H     77.63000000    47.83000000    62.81000000
   H     75.61000000    47.98000000    64.90000000
   H     74.57000000    49.47000000    63.69000000
   H     73.94000000    47.99000000    62.99000000
   N     74.88000000    45.65000000    64.37000000
   C     74.91000000    44.21000000    64.24000000
   C     76.26000000    43.52000000    64.06000000
   O     77.10000000    43.83000000    64.91000000
   C     74.09000000    43.67000000    65.41000000
   C     74.04000000    42.17000000    65.31000000
   C     75.07000000    41.36000000    65.81000000
   C     72.91000000    41.54000000    64.79000000
   C     74.97000000    39.97000000    65.60000000
   C     72.79000000    40.15000000    64.60000000
   C     73.87000000    39.36000000    65.00000000
   H     74.21000000    46.05000000    65.02000000
   H     74.33000000    43.96000000    63.36000000
   H     73.07000000    44.06000000    65.37000000
   H     74.58000000    43.96000000    66.34000000
   H     75.98000000    41.75000000    66.23000000
   H     72.01000000    42.08000000    64.53000000
   H     75.88000000    39.42000000    65.79000000
   H     71.92000000    39.79000000    64.07000000
   H     73.79000000    38.29000000    64.88000000
   N     76.54000000    42.64000000    63.10000000
   C     77.69000000    41.79000000    63.29000000
   C     79.04000000    42.45000000    63.03000000
   O     80.02000000    41.77000000    62.76000000
   C     77.47000000    40.57000000    62.40000000
   C     76.62000000    41.12000000    61.26000000
   C     75.77000000    42.18000000    61.96000000
   H     77.67000000    41.42000000    64.32000000
   H     78.38000000    40.12000000    62.00000000
   H     76.90000000    39.79000000    62.91000000
   H     77.21000000    41.52000000    60.43000000
   H     75.99000000    40.32000000    60.89000000
   H     75.55000000    43.01000000    61.30000000
   H     74.85000000    41.74000000    62.35000000
   N     79.07000000    43.76000000    62.79000000
   C     80.14000000    44.43000000    62.07000000
   C     81.22000000    44.93000000    63.02000000
   O     82.26000000    45.41000000    62.58000000
   C     79.76000000    45.67000000    61.27000000
   C     78.81000000    45.54000000    60.08000000
   C     78.79000000    46.69000000    59.09000000
   O     77.70000000    47.24000000    58.81000000
   O     79.84000000    47.08000000    58.54000000
   H     78.27000000    44.29000000    63.11000000
   H     80.51000000    43.65000000    61.42000000
   H     80.68000000    46.15000000    60.94000000
   H     79.18000000    46.31000000    61.94000000
   H     77.82000000    45.30000000    60.45000000
   H     79.06000000    44.64000000    59.51000000
   N     81.05000000    44.76000000    64.33000000
   C     81.99000000    44.93000000    65.43000000
   H     82.86100000    45.48300000    65.08000000
   H     81.50900000    45.48300000    66.23700000
   H     82.30400000    43.95200000    65.79500000
   H     80.17000000    44.39000000    64.65000000
  Ca     76.66000000    49.61000000    59.05000000
   O     78.98000000    50.44000000    60.13000000
   H     79.87000000    50.53000000    59.80000000
   H     78.93000000    51.07000000    60.85000000
   O     75.34000000    48.71000000    56.89000000
   H     74.91000000    49.20000000    56.19000000
   H     75.27000000    47.79000000    56.62000000

Ca 1.00



