%chk=loop3.cluster165.chk
%nprocshared=20
%mem=10GB
%nosave
#b3lyp/svp scf=(tight,noincore,xqc) Test 
#IOP(5/87=12) Density=Current Pop=(MK,readradii) iop(6/33=2) iop(6/42=6)

loop3.cluster165 

   0  1 
   C     94.54000000    60.44000000    28.04000000
   C     95.16000000    59.06000000    28.20000000
   O     95.07000000    58.44000000    29.26000000
   H     93.58700000    60.47300000    28.56800000
   H     95.21100000    61.19100000    28.45700000
   H     94.37600000    60.64500000    26.98200000
   N     95.74000000    58.53000000    27.12000000
   C     96.63000000    57.39000000    27.21000000
   C     98.08000000    57.80000000    27.43000000
   O     98.59000000    58.80000000    26.92000000
   C     96.35000000    56.55000000    25.97000000
   C     97.18000000    55.28000000    25.90000000
   O     97.18000000    54.52000000    26.89000000
   O     97.85000000    55.03000000    24.88000000
   H     95.74000000    59.09000000    26.28000000
   H     96.26000000    56.80000000    28.05000000
   H     96.58000000    57.13000000    25.07000000
   H     95.29000000    56.27000000    25.95000000
   N     98.81000000    56.96000000    28.16000000
   C    100.00000000    57.48000000    28.81000000
   C    101.29000000    57.44000000    28.01000000
   O    102.22000000    58.12000000    28.44000000
   C    100.31000000    56.94000000    30.21000000
   C    100.46000000    55.43000000    30.35000000
   C    100.63000000    55.01000000    31.80000000
   C    100.27000000    53.53000000    31.93000000
   N    101.43000000    52.69000000    31.59000000
   H     98.37000000    56.12000000    28.50000000
   H     99.85000000    58.53000000    29.06000000
   H     99.46000000    57.20000000    30.84000000
   H    101.10000000    57.56000000    30.64000000
   H    101.29000000    55.12000000    29.71000000
   H     99.61000000    54.91000000    29.90000000
   H    100.04000000    55.68000000    32.41000000
   H    101.64000000    55.21000000    32.16000000
   H     99.38000000    53.26000000    31.37000000
   H    100.05000000    53.34000000    32.98000000
   H    102.21000000    53.00000000    32.16000000
   H    101.31000000    51.69000000    31.71000000
   H    101.60000000    52.85000000    30.61000000
   N    101.44000000    56.77000000    26.87000000
   C    102.59000000    56.82000000    25.98000000
   C    102.49000000    57.89000000    24.90000000
   O    103.44000000    58.05000000    24.13000000
   C    102.94000000    55.43000000    25.46000000
   C    101.83000000    54.72000000    24.70000000
   O    101.00000000    55.32000000    23.99000000
   O    101.68000000    53.49000000    24.80000000
   H    100.69000000    56.17000000    26.57000000
   H    103.46000000    57.10000000    26.56000000
   H    103.27000000    54.80000000    26.29000000
   H    103.79000000    55.51000000    24.79000000
   N    101.39000000    58.62000000    24.72000000
   C    101.26000000    59.56000000    23.62000000
   C    101.27000000    58.96000000    22.22000000
   O    101.38000000    59.67000000    21.23000000
   H    100.69000000    58.45000000    25.43000000
   H    102.01000000    60.35000000    23.68000000
   H    100.34000000    60.11000000    23.77000000
   N    101.10000000    57.64000000    22.09000000
   C    100.85000000    56.99000000    20.82000000
   C     99.49000000    56.31000000    20.73000000
   O     99.04000000    55.60000000    21.62000000
   C    102.01000000    56.02000000    20.59000000
   C    102.01000000    55.26000000    19.27000000
   N    102.98000000    55.52000000    18.38000000
   O    101.28000000    54.30000000    19.05000000
   H    100.94000000    57.02000000    22.87000000
   H    100.85000000    57.75000000    20.04000000
   H    102.03000000    55.31000000    21.42000000
   H    102.92000000    56.58000000    20.77000000
   H    103.54000000    56.36000000    18.49000000
   H    103.07000000    54.96000000    17.55000000
   N     98.79000000    56.56000000    19.62000000
   C     97.38000000    56.23000000    19.54000000
   C     97.03000000    54.77000000    19.31000000
   O     95.84000000    54.48000000    19.46000000
   H     99.09000000    57.13000000    18.84000000
   H     96.92000000    56.81000000    18.74000000
   H     96.77000000    56.47000000    20.41000000
   N     97.98000000    53.87000000    19.05000000
   C     97.75000000    52.48000000    18.69000000
   C     97.79000000    51.55000000    19.90000000
   O     98.27000000    51.99000000    20.94000000
   C     98.82000000    52.06000000    17.68000000
   C     98.75000000    52.72000000    16.33000000
   C     98.04000000    52.12000000    15.28000000
   C     99.50000000    53.88000000    16.10000000
   C     98.16000000    52.55000000    13.95000000
   C     99.55000000    54.35000000    14.78000000
   C     98.88000000    53.74000000    13.70000000
   O     98.81000000    54.36000000    12.49000000
   H     98.86000000    54.33000000    18.86000000
   H     96.71000000    52.53000000    18.37000000
   H     98.91000000    50.98000000    17.58000000
   H     99.80000000    52.33000000    18.08000000
   H     97.51000000    51.20000000    15.49000000
   H    100.09000000    54.43000000    16.82000000
   H     97.57000000    52.11000000    13.16000000
   H    100.12000000    55.26000000    14.63000000
   H     99.14000000    55.27000000    12.47000000
   N     97.10000000    50.41000000    19.84000000
   C     96.73000000    49.49000000    20.90000000
   C     97.91000000    48.72000000    21.48000000
   O     98.95000000    49.29000000    21.78000000
   C     95.75000000    50.16000000    21.86000000
   C     95.72000000    49.69000000    23.32000000
   C     94.31000000    50.14000000    21.36000000
   C     94.89000000    50.50000000    24.31000000
   H     96.68000000    50.13000000    18.96000000
   H     96.19000000    48.75000000    20.31000000
   H     95.99000000    51.22000000    21.90000000
   H     96.74000000    49.63000000    23.70000000
   H     95.31000000    48.69000000    23.43000000
   H     94.26000000    50.43000000    20.31000000
   H     93.93000000    49.13000000    21.40000000
   H     93.66000000    50.74000000    22.00000000
   H     93.87000000    50.11000000    24.25000000
   H     95.21000000    50.29000000    25.33000000
   H     94.87000000    51.57000000    24.11000000
   N     97.63000000    47.46000000    21.83000000
   C     98.48000000    46.63000000    22.67000000
   C     98.40000000    45.16000000    22.28000000
   O     99.37000000    44.42000000    22.44000000
   C     98.05000000    46.71000000    24.13000000
   O     96.65000000    46.63000000    24.27000000
   H     96.64000000    47.29000000    21.81000000
   H     99.52000000    46.95000000    22.62000000
   H     98.29000000    47.68000000    24.57000000
   H     98.55000000    45.99000000    24.78000000
   H     96.49000000    46.70000000    25.21000000
   N     97.35000000    44.72000000    21.57000000
   C     96.97000000    43.36000000    21.25000000
   C     97.16000000    42.32000000    22.35000000
   O     98.02000000    41.47000000    22.17000000
   C     97.55000000    43.02000000    19.88000000
   H     96.58000000    45.37000000    21.55000000
   H     95.89000000    43.37000000    21.13000000
   H     97.24000000    42.04000000    19.52000000
   H     97.16000000    43.72000000    19.15000000
   H     98.64000000    43.06000000    19.94000000
   N     96.49000000    42.48000000    23.50000000
   C     95.53000000    43.48000000    23.90000000
   C     94.17000000    42.79000000    23.80000000
   O     94.07000000    41.57000000    23.90000000
   C     95.78000000    43.85000000    25.36000000
   H     96.63000000    41.72000000    24.15000000
   H     95.56000000    44.37000000    23.27000000
   H     95.53000000    43.11000000    26.13000000
   H     96.83000000    44.10000000    25.36000000
   H     95.17000000    44.74000000    25.56000000
   N     93.08000000    43.55000000    23.70000000
   C     93.00000000    45.00000000    23.63000000
   C     92.08000000    45.57000000    22.56000000
   O     92.28000000    46.66000000    22.02000000
   C     92.47000000    45.48000000    24.98000000
   C     92.74000000    46.96000000    25.22000000
   C     92.47000000    47.25000000    26.69000000
   O     91.35000000    47.63000000    27.09000000
   O     93.46000000    47.09000000    27.43000000
   H     92.24000000    43.01000000    23.84000000
   H     93.98000000    45.46000000    23.58000000
   H     92.98000000    44.87000000    25.73000000
   H     91.42000000    45.25000000    25.13000000
   H     92.15000000    47.58000000    24.55000000
   H     93.81000000    47.13000000    25.07000000
   N     91.11000000    44.73000000    22.19000000
   C     90.06000000    45.22000000    21.32000000
   H     89.21800000    45.55900000    21.92300000
   H     90.43800000    46.05200000    20.72500000
   H     89.73200000    44.41900000    20.65800000
   H     91.03000000    43.79000000    22.55000000
  Ca     99.12000000    53.42000000    23.18000000
   O     96.60000000    54.09000000    22.52000000
   H     96.62000000    54.88000000    23.07000000
   H     95.67000000    53.94000000    22.35000000
   O     97.72000000    52.09000000    25.02000000
   H     97.88000000    51.18000000    25.28000000
   H     97.52000000    52.54000000    25.84000000
   O    101.03900000    52.96000000    21.51000000
   H    100.91900000    52.36000000    20.77000000
   H    101.91900000    52.78000000    21.84000000
   O     99.91900000    51.02000000    23.58000000
   H     99.44900000    50.46000000    22.96000000
   H    100.60900000    50.46000000    23.93000000

Ca 1.00



