%chk=loop4.cluster99.chk
%nprocshared=20
%mem=10GB
%nosave
#b3lyp/svp scf=(tight,noincore,xqc) Test 
#IOP(5/87=12) Density=Current Pop=(MK,readradii) iop(6/33=2) iop(6/42=6)

loop4.cluster99 

   -3  1 
   C     62.24000000    59.13000000    81.46000000
   C     63.10000000    58.09000000    82.16000000
   O     64.22000000    57.92000000    81.67000000
   H     61.32900000    59.29400000    82.03500000
   H     62.79300000    60.06600000    81.38200000
   H     61.98100000    58.77600000    80.46200000
   N     62.72000000    57.48000000    83.28000000
   C     63.61000000    56.74000000    84.15000000
   C     64.92000000    57.43000000    84.51000000
   O     65.92000000    56.79000000    84.85000000
   C     63.84000000    55.30000000    83.72000000
   C     62.69000000    54.55000000    83.08000000
   O     62.94000000    53.69000000    82.20000000
   O     61.51000000    54.76000000    83.43000000
   H     61.86000000    57.81000000    83.70000000
   H     63.18000000    56.84000000    85.15000000
   H     64.19000000    54.70000000    84.57000000
   H     64.62000000    55.38000000    82.96000000
   N     64.87000000    58.76000000    84.62000000
   C     65.92000000    59.68000000    85.02000000
   C     65.25000000    60.56000000    86.06000000
   O     64.16000000    61.10000000    85.84000000
   C     66.44000000    60.51000000    83.85000000
   C     67.20000000    59.65000000    82.84000000
   C     67.38000000    61.62000000    84.30000000
   C     68.45000000    58.90000000    83.30000000
   H     64.03000000    59.22000000    84.31000000
   H     66.69000000    59.10000000    85.54000000
   H     65.55000000    60.92000000    83.38000000
   H     67.41000000    60.25000000    81.96000000
   H     66.54000000    58.87000000    82.45000000
   H     66.78000000    62.41000000    84.75000000
   H     68.12000000    61.32000000    85.04000000
   H     67.83000000    62.04000000    83.40000000
   H     69.10000000    58.85000000    82.42000000
   H     68.95000000    59.36000000    84.15000000
   H     68.13000000    57.92000000    83.63000000
   N     65.90000000    60.80000000    87.20000000
   C     66.99000000    60.01000000    87.74000000
   C     66.61000000    58.60000000    88.15000000
   O     67.47000000    57.72000000    88.22000000
   C     67.57000000    60.77000000    88.93000000
   C     68.20000000    62.14000000    88.69000000
   O     69.36000000    62.41000000    89.06000000
   O     67.58000000    62.98000000    88.01000000
   H     65.48000000    61.53000000    87.76000000
   H     67.77000000    60.00000000    86.98000000
   H     68.42000000    60.19000000    89.29000000
   H     66.70000000    60.87000000    89.58000000
   N     65.32000000    58.34000000    88.34000000
   C     64.76000000    57.03000000    88.60000000
   C     65.48000000    56.29000000    89.71000000
   O     65.53000000    56.83000000    90.82000000
   H     64.71000000    59.13000000    88.15000000
   H     64.55000000    56.39000000    87.74000000
   H     63.77000000    57.29000000    88.99000000
   N     66.00000000    55.10000000    89.40000000
   C     66.79000000    54.24000000    90.26000000
   C     68.17000000    53.92000000    89.72000000
   O     69.01000000    53.40000000    90.46000000
   C     66.02000000    52.95000000    90.52000000
   C     65.61000000    52.10000000    89.33000000
   O     66.56000000    51.64000000    88.65000000
   O     64.42000000    51.73000000    89.20000000
   H     65.97000000    54.91000000    88.41000000
   H     66.92000000    54.71000000    91.23000000
   H     65.14000000    53.12000000    91.15000000
   H     66.58000000    52.34000000    91.23000000
   N     68.37000000    54.11000000    88.41000000
   C     69.63000000    53.82000000    87.77000000
   C     69.60000000    52.71000000    86.73000000
   O     70.58000000    52.55000000    86.00000000
   H     67.59000000    54.25000000    87.78000000
   H     70.57000000    53.75000000    88.31000000
   H     69.94000000    54.74000000    87.26000000
   N     68.54000000    51.91000000    86.68000000
   C     68.54000000    50.63000000    86.00000000
   C     68.90000000    50.63000000    84.52000000
   O     69.68000000    49.78000000    84.09000000
   C     69.27000000    49.59000000    86.85000000
   C     68.78000000    48.18000000    86.53000000
   C     69.56000000    47.02000000    87.12000000
   N     69.06000000    45.78000000    87.10000000
   O     70.69000000    47.09000000    87.59000000
   H     67.95000000    51.97000000    87.50000000
   H     67.49000000    50.31000000    86.02000000
   H     69.07000000    49.70000000    87.92000000
   H     70.33000000    49.61000000    86.60000000
   H     68.69000000    48.07000000    85.45000000
   H     67.75000000    48.03000000    86.86000000
   H     68.30000000    45.50000000    86.49000000
   H     69.54000000    45.16000000    87.74000000
   N     68.39000000    51.57000000    83.73000000
   C     68.62000000    51.83000000    82.32000000
   C     68.12000000    50.73000000    81.39000000
   O     67.26000000    49.93000000    81.75000000
   C     67.96000000    53.14000000    81.90000000
   C     68.40000000    54.36000000    82.71000000
   C     68.14000000    53.53000000    80.43000000
   H     67.57000000    52.08000000    84.02000000
   H     69.70000000    51.96000000    82.30000000
   H     66.88000000    53.05000000    82.08000000
   H     68.15000000    54.24000000    83.76000000
   H     69.47000000    54.56000000    82.64000000
   H     67.86000000    55.27000000    82.43000000
   H     67.58000000    52.99000000    79.67000000
   H     67.81000000    54.56000000    80.32000000
   H     69.20000000    53.53000000    80.16000000
   N     68.64000000    50.55000000    80.17000000
   C     68.20000000    49.47000000    79.32000000
   C     67.86000000    49.93000000    77.90000000
   O     68.72000000    50.65000000    77.39000000
   C     69.29000000    48.41000000    79.22000000
   C     68.89000000    47.16000000    78.44000000
   N     67.62000000    46.75000000    78.44000000
   O     69.67000000    46.60000000    77.68000000
   H     69.45000000    51.10000000    79.92000000
   H     67.33000000    48.95000000    79.72000000
   H     69.39000000    47.92000000    80.18000000
   H     70.22000000    48.79000000    78.79000000
   H     67.02000000    46.98000000    79.22000000
   H     67.27000000    46.14000000    77.72000000
   N     66.76000000    49.53000000    77.26000000
   C     66.43000000    49.66000000    75.85000000
   C     64.96000000    49.43000000    75.54000000
   O     64.49000000    49.13000000    74.44000000
   C     67.31000000    48.67000000    75.09000000
   C     67.34000000    48.90000000    73.60000000
   C     67.84000000    50.13000000    73.16000000
   C     67.02000000    47.89000000    72.69000000
   C     67.86000000    50.33000000    71.77000000
   C     67.16000000    48.01000000    71.30000000
   C     67.53000000    49.30000000    70.87000000
   O     67.77000000    49.58000000    69.55000000
   H     66.22000000    48.90000000    77.82000000
   H     66.57000000    50.70000000    75.57000000
   H     66.97000000    47.65000000    75.29000000
   H     68.36000000    48.76000000    75.37000000
   H     68.31000000    50.88000000    73.78000000
   H     66.60000000    46.99000000    73.11000000
   H     68.22000000    51.24000000    71.32000000
   H     66.90000000    47.26000000    70.57000000
   H     67.10000000    49.27000000    68.94000000
   N     64.11000000    49.59000000    76.56000000
   C     62.67000000    49.43000000    76.49000000
   C     61.93000000    50.37000000    75.55000000
   O     61.24000000    49.92000000    74.64000000
   C     62.09000000    49.46000000    77.90000000
   C     60.59000000    49.22000000    78.00000000
   C     60.08000000    49.68000000    79.36000000
   O     60.78000000    49.68000000    80.40000000
   O     58.86000000    49.94000000    79.41000000
   H     64.45000000    49.97000000    77.43000000
   H     62.52000000    48.45000000    76.05000000
   H     62.35000000    50.43000000    78.33000000
   H     62.67000000    48.86000000    78.60000000
   H     60.29000000    48.18000000    77.85000000
   H     60.13000000    49.84000000    77.23000000
   N     62.09000000    51.70000000    75.53000000
   C     62.86000000    52.51000000    76.46000000
   C     64.26000000    52.94000000    76.06000000
   O     64.67000000    52.66000000    74.93000000
   C     61.94000000    53.64000000    76.91000000
   C     60.57000000    53.22000000    77.44000000
   C     59.73000000    54.47000000    77.65000000
   O     59.87000000    55.19000000    78.66000000
   O     58.92000000    54.77000000    76.74000000
   H     61.81000000    52.22000000    74.72000000
   H     63.07000000    51.93000000    77.36000000
   H     61.77000000    54.22000000    76.01000000
   H     62.47000000    54.27000000    77.63000000
   H     60.67000000    52.67000000    78.38000000
   H     60.09000000    52.56000000    76.72000000
   N     64.92000000    53.66000000    76.97000000
   C     66.16000000    54.40000000    76.79000000
   H     66.94300000    53.72000000    76.45400000
   H     66.01300000    55.18100000    76.04400000
   H     66.45400000    54.85300000    77.73700000
   H     64.40000000    53.82000000    77.82000000
  Ca     59.98000000    54.57000000    81.28000000
   O     61.67000000    52.24000000    80.51000000
   H     61.55000000    51.30000000    80.61000000
   H     61.98000000    52.54000000    81.36000000
   O     58.57000000    52.71000000    80.03000000
   H     57.72000000    52.91000000    79.63000000
   H     58.69000000    51.77000000    79.88000000
   O     59.47000000    52.58000000    83.10000000
   H     59.72000000    52.28000000    83.97000000
   H     58.52000000    52.45000000    83.07000000
   O     62.29000000    55.90000000    80.22000000
   H     62.04000000    56.47000000    79.49000000
   H     63.25000000    55.86000000    80.18000000

Ca 1.00



