%chk=loop3.cluster41.chk
%nprocshared=20
%mem=10GB
%nosave
#b3lyp/svp scf=(tight,noincore,xqc) Test 
#IOP(5/87=12) Density=Current Pop=(MK,readradii) iop(6/33=2) iop(6/42=6)

loop3.cluster41 

   0  1 
   C     60.38000000    45.77000000    34.88000000
   C     60.25000000    44.92000000    36.14000000
   O     60.93000000    43.90000000    36.18000000
   H     61.43300000    45.87400000    34.62000000
   H     59.85000000    45.28700000    34.05900000
   H     59.95200000    46.75600000    35.06000000
   N     59.31000000    45.27000000    37.03000000
   C     59.10000000    44.60000000    38.29000000
   C     58.59000000    43.19000000    38.04000000
   O     57.60000000    42.91000000    37.37000000
   C     58.03000000    45.37000000    39.08000000
   C     58.00000000    44.98000000    40.55000000
   O     58.17000000    45.72000000    41.54000000
   O     58.03000000    43.77000000    40.86000000
   H     58.79000000    46.09000000    36.75000000
   H     60.03000000    44.59000000    38.87000000
   H     57.06000000    45.16000000    38.64000000
   H     58.31000000    46.42000000    39.04000000
   N     59.30000000    42.22000000    38.63000000
   C     58.99000000    40.81000000    38.48000000
   C     57.90000000    40.26000000    39.39000000
   O     57.61000000    39.08000000    39.18000000
   C     60.27000000    40.06000000    38.87000000
   C     61.44000000    40.14000000    37.89000000
   C     61.20000000    39.45000000    36.55000000
   C     62.42000000    39.48000000    35.63000000
   N     61.89000000    39.31000000    34.27000000
   H     60.03000000    42.49000000    39.27000000
   H     58.65000000    40.55000000    37.48000000
   H     60.12000000    38.99000000    39.01000000
   H     60.70000000    40.53000000    39.75000000
   H     62.25000000    39.58000000    38.36000000
   H     61.84000000    41.14000000    37.67000000
   H     60.42000000    40.07000000    36.11000000
   H     60.78000000    38.46000000    36.70000000
   H     63.07000000    38.63000000    35.77000000
   H     63.01000000    40.39000000    35.75000000
   H     61.25000000    38.53000000    34.23000000
   H     61.55000000    40.19000000    33.89000000
   H     62.55000000    38.93000000    33.61000000
   N     57.33000000    41.02000000    40.33000000
   C     56.40000000    40.56000000    41.34000000
   C     55.22000000    41.51000000    41.51000000
   O     54.17000000    41.06000000    41.97000000
   C     57.04000000    40.34000000    42.70000000
   C     57.88000000    41.53000000    43.13000000
   O     59.11000000    41.53000000    42.90000000
   O     57.33000000    42.61000000    43.44000000
   H     57.78000000    41.93000000    40.36000000
   H     55.97000000    39.63000000    40.97000000
   H     57.74000000    39.50000000    42.64000000
   H     56.29000000    40.04000000    43.44000000
   N     55.46000000    42.79000000    41.22000000
   C     54.48000000    43.86000000    41.26000000
   C     54.29000000    44.52000000    42.62000000
   O     53.31000000    45.22000000    42.86000000
   H     56.40000000    43.04000000    40.95000000
   H     53.49000000    43.61000000    40.89000000
   H     54.87000000    44.56000000    40.52000000
   N     55.16000000    44.23000000    43.59000000
   C     55.31000000    45.08000000    44.76000000
   C     55.66000000    46.54000000    44.51000000
   O     55.40000000    47.41000000    45.34000000
   C     56.23000000    44.40000000    45.77000000
   C     57.74000000    44.46000000    45.58000000
   N     58.50000000    43.65000000    46.33000000
   O     58.29000000    45.17000000    44.75000000
   H     55.82000000    43.49000000    43.41000000
   H     54.35000000    45.08000000    45.26000000
   H     55.77000000    43.42000000    45.86000000
   H     56.10000000    44.91000000    46.73000000
   H     58.07000000    42.95000000    46.92000000
   H     59.48000000    43.60000000    46.12000000
   N     56.08000000    46.88000000    43.29000000
   C     56.35000000    48.23000000    42.86000000
   C     57.69000000    48.82000000    43.29000000
   O     57.73000000    49.94000000    43.79000000
   H     56.18000000    46.13000000    42.62000000
   H     55.50000000    48.84000000    43.15000000
   H     56.38000000    48.32000000    41.77000000
   N     58.75000000    48.02000000    43.15000000
   C     60.13000000    48.35000000    43.45000000
   C     60.99000000    47.40000000    42.64000000
   O     60.83000000    46.18000000    42.73000000
   C     60.47000000    48.36000000    44.94000000
   C     60.57000000    47.09000000    45.74000000
   C     59.79000000    46.92000000    46.89000000
   C     61.74000000    46.32000000    45.63000000
   C     60.11000000    45.93000000    47.84000000
   C     62.09000000    45.38000000    46.61000000
   C     61.25000000    45.12000000    47.70000000
   O     61.57000000    44.08000000    48.53000000
   H     58.58000000    47.08000000    42.82000000
   H     60.33000000    49.39000000    43.19000000
   H     59.78000000    49.01000000    45.48000000
   H     61.49000000    48.73000000    45.03000000
   H     58.94000000    47.58000000    46.98000000
   H     62.48000000    46.55000000    44.87000000
   H     59.57000000    45.75000000    48.76000000
   H     62.97000000    44.78000000    46.41000000
   H     62.41000000    43.65000000    48.35000000
   N     62.00000000    47.93000000    41.95000000
   C     63.09000000    47.15000000    41.40000000
   C     64.03000000    46.87000000    42.57000000
   O     64.43000000    47.75000000    43.33000000
   C     63.66000000    47.99000000    40.27000000
   C     62.65000000    48.16000000    39.15000000
   C     64.90000000    47.29000000    39.73000000
   C     63.02000000    49.23000000    38.13000000
   H     62.07000000    48.94000000    41.96000000
   H     62.63000000    46.26000000    40.97000000
   H     63.74000000    48.97000000    40.76000000
   H     61.63000000    48.32000000    39.50000000
   H     62.66000000    47.23000000    38.57000000
   H     65.64000000    47.37000000    40.53000000
   H     64.62000000    46.26000000    39.47000000
   H     65.28000000    47.86000000    38.88000000
   H     63.23000000    50.16000000    38.66000000
   H     63.73000000    48.91000000    37.37000000
   H     62.13000000    49.28000000    37.51000000
   N     64.54000000    45.64000000    42.63000000
   C     65.69000000    45.17000000    43.38000000
   C     66.64000000    44.41000000    42.47000000
   O     66.32000000    44.03000000    41.34000000
   C     65.18000000    44.25000000    44.49000000
   O     64.57000000    43.14000000    43.88000000
   H     64.21000000    45.02000000    41.90000000
   H     66.20000000    46.07000000    43.72000000
   H     64.64000000    44.81000000    45.26000000
   H     66.06000000    43.88000000    45.01000000
   H     63.68000000    43.29000000    43.56000000
   N     67.80000000    43.98000000    42.97000000
   C     68.94000000    43.51000000    42.20000000
   C     68.75000000    42.31000000    41.30000000
   O     69.04000000    42.44000000    40.11000000
   C     70.00000000    43.25000000    43.27000000
   H     68.02000000    44.29000000    43.91000000
   H     69.17000000    44.34000000    41.53000000
   H     69.70000000    42.55000000    44.05000000
   H     70.93000000    42.91000000    42.81000000
   H     70.27000000    44.23000000    43.64000000
   N     68.21000000    41.16000000    41.73000000
   C     67.83000000    39.97000000    40.99000000
   C     66.87000000    40.34000000    39.87000000
   O     66.88000000    39.74000000    38.80000000
   C     67.17000000    38.95000000    41.91000000
   H     68.15000000    41.06000000    42.73000000
   H     68.68000000    39.49000000    40.51000000
   H     67.81000000    38.80000000    42.79000000
   H     66.15000000    39.25000000    42.14000000
   H     67.03000000    37.96000000    41.47000000
   N     66.05000000    41.38000000    40.02000000
   C     65.09000000    41.79000000    39.01000000
   C     65.72000000    42.45000000    37.79000000
   O     65.50000000    42.11000000    36.63000000
   C     63.88000000    42.55000000    39.53000000
   C     63.30000000    42.03000000    40.85000000
   C     62.24000000    43.03000000    41.26000000
   O     61.10000000    43.07000000    40.75000000
   O     62.42000000    43.73000000    42.29000000
   H     65.99000000    41.88000000    40.90000000
   H     64.74000000    40.86000000    38.57000000
   H     63.18000000    42.66000000    38.71000000
   H     64.13000000    43.56000000    39.85000000
   H     64.16000000    41.93000000    41.51000000
   H     62.90000000    41.02000000    40.75000000
   N     66.67000000    43.33000000    38.13000000
   C     67.54000000    43.96000000    37.16000000
   H     68.50400000    43.45100000    37.15200000
   H     67.08800000    43.89600000    36.17000000
   H     67.68500000    45.00700000    37.42700000
   H     66.78000000    43.63000000    39.08000000
  Ca     59.75000000    43.87000000    42.94000000
   O     60.96000000    42.68000000    45.04000000
   H     61.90000000    42.75000000    45.23000000
   H     60.73000000    41.78000000    45.28000000

Ca 1.00



