%chk=loop1.cluster150.chk
%nprocshared=20
%mem=10GB
%nosave
#b3lyp/svp scf=(tight,noincore,xqc) Test 
#IOP(5/87=12) Density=Current Pop=(MK,readradii) iop(6/33=2) iop(6/42=6)

loop1.cluster150 

   0  1 
   C     84.22000000    68.16000000    27.58000000
   C     85.16000000    69.32000000    27.88000000
   O     85.77000000    69.87000000    26.97000000
   H     83.30500000    68.54200000    27.12600000
   H     84.70500000    67.46800000    26.89200000
   H     83.97600000    67.64100000    28.50700000
   N     85.24000000    69.78000000    29.14000000
   C     86.16000000    70.77000000    29.64000000
   C     87.41000000    70.07000000    30.17000000
   O     87.54000000    69.93000000    31.38000000
   C     85.48000000    71.64000000    30.68000000
   C     86.45000000    72.71000000    31.16000000
   O     86.23000000    73.06000000    32.34000000
   O     87.15000000    73.35000000    30.34000000
   H     84.79000000    69.22000000    29.85000000
   H     86.40000000    71.52000000    28.88000000
   H     85.22000000    71.14000000    31.61000000
   H     84.69000000    72.23000000    30.20000000
   N     88.33000000    69.70000000    29.28000000
   C     89.59000000    69.12000000    29.68000000
   C     90.52000000    70.12000000    30.35000000
   O     91.26000000    69.73000000    31.26000000
   C     90.28000000    68.60000000    28.42000000
   C     89.60000000    67.41000000    27.75000000
   C     90.14000000    67.10000000    26.36000000
   C     89.61000000    65.83000000    25.72000000
   N     88.21000000    66.03000000    25.31000000
   H     88.20000000    69.97000000    28.31000000
   H     89.51000000    68.26000000    30.34000000
   H     91.29000000    68.29000000    28.70000000
   H     90.32000000    69.44000000    27.72000000
   H     88.52000000    67.57000000    27.64000000
   H     89.68000000    66.55000000    28.42000000
   H     91.22000000    67.03000000    26.51000000
   H     89.95000000    67.91000000    25.65000000
   H     89.78000000    65.04000000    26.46000000
   H     90.24000000    65.55000000    24.88000000
   H     87.78000000    65.15000000    25.06000000
   H     87.69000000    66.37000000    26.11000000
   H     88.10000000    66.73000000    24.60000000
   N     90.45000000    71.36000000    29.87000000
   C     91.14000000    72.52000000    30.39000000
   C     90.69000000    73.04000000    31.75000000
   O     91.38000000    73.77000000    32.45000000
   C     90.92000000    73.66000000    29.41000000
   C     91.55000000    73.28000000    28.08000000
   O     92.78000000    73.05000000    28.09000000
   O     90.85000000    73.19000000    27.05000000
   H     89.79000000    71.54000000    29.12000000
   H     92.22000000    72.32000000    30.43000000
   H     91.37000000    74.55000000    29.85000000
   H     89.84000000    73.83000000    29.36000000
   N     89.60000000    72.51000000    32.33000000
   C     89.23000000    72.84000000    33.69000000
   C     88.92000000    74.29000000    34.03000000
   O     89.15000000    74.66000000    35.17000000
   H     89.02000000    71.95000000    31.73000000
   H     89.97000000    72.43000000    34.37000000
   H     88.26000000    72.36000000    33.84000000
   N     88.50000000    75.12000000    33.07000000
   C     88.22000000    76.53000000    33.27000000
   C     86.79000000    76.74000000    33.72000000
   O     86.43000000    77.83000000    34.15000000
   C     88.48000000    77.41000000    32.05000000
   C     87.81000000    76.88000000    30.79000000
   O     86.64000000    76.44000000    30.79000000
   O     88.36000000    76.80000000    29.67000000
   H     88.30000000    74.68000000    32.18000000
   H     88.75000000    76.90000000    34.15000000
   H     89.56000000    77.49000000    31.95000000
   H     88.08000000    78.38000000    32.33000000
   N     85.98000000    75.67000000    33.68000000
   C     84.57000000    75.73000000    34.00000000
   C     83.64000000    76.16000000    32.87000000
   O     82.52000000    76.55000000    33.21000000
   H     86.31000000    74.82000000    33.27000000
   H     84.41000000    76.30000000    34.91000000
   H     84.19000000    74.72000000    34.14000000
   N     84.00000000    75.95000000    31.60000000
   C     83.18000000    76.33000000    30.47000000
   C     83.34000000    75.31000000    29.35000000
   O     84.45000000    74.89000000    29.04000000
   C     83.48000000    77.75000000    30.00000000
   C     83.30000000    78.81000000    31.09000000
   O     84.81000000    77.92000000    29.56000000
   H     84.98000000    75.77000000    31.45000000
   H     82.13000000    76.29000000    30.76000000
   H     82.79000000    78.10000000    29.23000000
   H     85.37000000    77.59000000    30.27000000
   H     82.42000000    78.77000000    31.73000000
   H     84.03000000    78.73000000    31.89000000
   H     83.31000000    79.80000000    30.63000000
   N     82.26000000    74.96000000    28.64000000
   C     82.28000000    74.04000000    27.52000000
   C     81.88000000    74.84000000    26.29000000
   O     80.77000000    75.36000000    26.18000000
   C     81.33000000    72.86000000    27.71000000
   C     81.90000000    71.93000000    28.77000000
   C     81.02000000    72.10000000    26.42000000
   C     81.00000000    70.86000000    29.39000000
   H     81.36000000    75.35000000    28.89000000
   H     83.27000000    73.63000000    27.34000000
   H     80.34000000    73.22000000    28.01000000
   H     82.24000000    72.54000000    29.60000000
   H     82.81000000    71.45000000    28.41000000
   H     81.99000000    71.82000000    26.00000000
   H     80.38000000    71.24000000    26.59000000
   H     80.39000000    72.70000000    25.76000000
   H     81.60000000    70.30000000    30.10000000
   H     80.18000000    71.22000000    30.01000000
   H     80.60000000    70.28000000    28.56000000
   N     82.87000000    75.06000000    25.41000000
   C     82.62000000    75.68000000    24.13000000
   C     82.12000000    74.70000000    23.07000000
   O     82.10000000    73.49000000    23.26000000
   C     83.83000000    76.41000000    23.57000000
   C     84.44000000    77.51000000    24.44000000
   O     84.85000000    75.46000000    23.34000000
   H     83.75000000    74.64000000    25.66000000
   H     81.82000000    76.42000000    24.17000000
   H     83.63000000    76.77000000    22.56000000
   H     85.17000000    75.22000000    24.21000000
   H     85.16000000    77.97000000    23.76000000
   H     83.70000000    78.26000000    24.71000000
   H     84.86000000    77.06000000    25.34000000
   N     81.60000000    75.18000000    21.94000000
   C     81.14000000    74.32000000    20.87000000
   C     82.16000000    73.35000000    20.28000000
   O     81.91000000    72.23000000    19.84000000
   C     80.59000000    75.00000000    19.61000000
   C     79.54000000    76.08000000    19.84000000
   O     81.63000000    75.74000000    19.01000000
   H     81.59000000    76.19000000    21.84000000
   H     80.35000000    73.68000000    21.25000000
   H     80.26000000    74.21000000    18.93000000
   H     82.05000000    75.24000000    18.31000000
   H     79.76000000    76.76000000    20.66000000
   H     79.40000000    76.59000000    18.89000000
   H     78.52000000    75.69000000    19.87000000
   N     83.46000000    73.63000000    20.41000000
   C     84.54000000    72.80000000    19.95000000
   C     84.90000000    71.76000000    21.01000000
   O     85.28000000    70.65000000    20.63000000
   C     85.78000000    73.66000000    19.70000000
   C     86.90000000    73.11000000    18.83000000
   C     86.68000000    72.88000000    17.33000000
   C     86.58000000    74.24000000    16.65000000
   N     85.66000000    74.29000000    15.51000000
   H     83.75000000    74.48000000    20.87000000
   H     84.16000000    72.23000000    19.10000000
   H     86.21000000    73.89000000    20.67000000
   H     85.47000000    74.60000000    19.26000000
   H     87.02000000    72.10000000    19.22000000
   H     87.85000000    73.64000000    18.93000000
   H     85.72000000    72.36000000    17.33000000
   H     87.46000000    72.26000000    16.87000000
   H     87.55000000    74.56000000    16.29000000
   H     86.19000000    74.92000000    17.41000000
   H     84.83000000    73.73000000    15.67000000
   H     85.31000000    75.23000000    15.41000000
   H     86.11000000    73.95000000    14.67000000
   N     84.52000000    71.97000000    22.27000000
   C     84.64000000    71.04000000    23.38000000
   C     83.62000000    69.92000000    23.29000000
   O     83.91000000    68.79000000    23.67000000
   C     84.73000000    71.83000000    24.68000000
   C     86.09000000    72.52000000    24.72000000
   C     86.11000000    73.34000000    26.01000000
   O     85.78000000    74.54000000    25.95000000
   O     86.76000000    72.97000000    27.01000000
   H     84.12000000    72.88000000    22.43000000
   H     85.56000000    70.47000000    23.29000000
   H     84.52000000    71.26000000    25.59000000
   H     83.94000000    72.58000000    24.66000000
   H     86.32000000    73.08000000    23.82000000
   H     86.81000000    71.72000000    24.89000000
   N     82.43000000    70.27000000    22.81000000
   C     81.45000000    69.31000000    22.34000000
   H     80.56500000    69.83900000    21.98700000
   H     81.87500000    68.72700000    21.52300000
   H     81.17300000    68.64400000    23.15700000
   H     82.34000000    71.24000000    22.53000000
  Ca     86.88000000    75.16000000    28.43000000
   O     89.18000000    75.25000000    27.02000000
   H     89.21000000    75.80000000    26.25000000
   H     90.04000000    74.82000000    27.04000000
   O     87.08000000    77.55000000    27.08000000
   H     87.35000000    77.68000000    26.17000000
   H     86.46000000    78.26000000    27.24000000

Ca 1.00



