%chk=loop3.cluster122.chk
%nprocshared=20
%mem=10GB
%nosave
#b3lyp/svp scf=(tight,noincore,xqc) Test 
#IOP(5/87=12) Density=Current Pop=(MK,readradii) iop(6/33=2) iop(6/42=6)

loop3.cluster122 

   0  1 
   C     91.22000000    74.92000000    22.58000000
   C     92.71000000    74.66000000    22.39000000
   O     93.00000000    73.47000000    22.38000000
   H     90.66100000    74.01200000    22.35100000
   H     91.03000000    75.21200000    23.61300000
   H     90.90200000    75.72000000    21.91200000
   N     93.62000000    75.64000000    22.44000000
   C     95.07000000    75.60000000    22.31000000
   C     95.76000000    74.80000000    23.41000000
   O     95.87000000    73.58000000    23.37000000
   C     95.68000000    76.94000000    21.94000000
   C     95.25000000    77.99000000    22.96000000
   O     95.23000000    79.15000000    22.49000000
   O     94.86000000    77.77000000    24.13000000
   H     93.31000000    76.60000000    22.39000000
   H     95.19000000    74.97000000    21.42000000
   H     95.18000000    77.16000000    21.00000000
   H     96.76000000    76.82000000    21.79000000
   N     96.25000000    75.43000000    24.48000000
   C     97.28000000    74.82000000    25.29000000
   C     98.68000000    74.87000000    24.70000000
   O     99.15000000    75.92000000    24.25000000
   C     97.21000000    75.44000000    26.68000000
   C     97.65000000    74.59000000    27.87000000
   C     97.93000000    75.60000000    28.98000000
   C     96.82000000    76.62000000    29.19000000
   N     97.11000000    77.51000000    30.33000000
   H     96.10000000    76.43000000    24.46000000
   H     97.01000000    73.78000000    25.46000000
   H     96.20000000    75.85000000    26.80000000
   H     97.87000000    76.31000000    26.70000000
   H     98.59000000    74.08000000    27.70000000
   H     96.89000000    73.85000000    28.13000000
   H     98.87000000    76.09000000    28.73000000
   H     98.16000000    75.17000000    29.96000000
   H     95.95000000    76.03000000    29.49000000
   H     96.72000000    77.24000000    28.31000000
   H     97.44000000    77.03000000    31.15000000
   H     97.79000000    78.17000000    29.97000000
   H     96.30000000    78.05000000    30.59000000
   N     99.37000000    73.72000000    24.75000000
   C    100.80000000    73.58000000    24.55000000
   C    101.11000000    72.60000000    23.42000000
   O    102.25000000    72.17000000    23.32000000
   C    101.46000000    73.19000000    25.86000000
   C    100.92000000    71.91000000    26.48000000
   O    101.17000000    71.86000000    27.71000000
   O    100.33000000    71.02000000    25.83000000
   H     98.89000000    72.90000000    25.10000000
   H    101.20000000    74.53000000    24.21000000
   H    101.40000000    73.96000000    26.63000000
   H    102.55000000    73.16000000    25.80000000
   N    100.13000000    72.26000000    22.58000000
   C    100.30000000    71.43000000    21.40000000
   C     99.30000000    71.86000000    20.33000000
   O     98.50000000    72.78000000    20.51000000
   H     99.24000000    72.72000000    22.67000000
   H    100.18000000    70.39000000    21.69000000
   H    101.28000000    71.63000000    20.97000000
   N     99.21000000    71.24000000    19.15000000
   C    100.12000000    70.24000000    18.62000000
   C     99.23000000    69.44000000    17.68000000
   O     98.65000000    69.98000000    16.75000000
   C    101.25000000    71.04000000    17.97000000
   C    102.20000000    70.07000000    17.29000000
   N    103.22000000    70.65000000    16.67000000
   O    102.17000000    68.85000000    17.47000000
   H     98.40000000    71.33000000    18.55000000
   H    100.59000000    69.59000000    19.35000000
   H    101.78000000    71.60000000    18.74000000
   H    100.81000000    71.69000000    17.21000000
   H    103.24000000    71.65000000    16.59000000
   H    103.95000000    70.05000000    16.30000000
   N     99.08000000    68.12000000    17.79000000
   C     99.70000000    67.21000000    18.73000000
   C     99.00000000    67.26000000    20.08000000
   O     98.20000000    68.14000000    20.42000000
   H     98.40000000    67.74000000    17.14000000
   H    100.77000000    67.43000000    18.78000000
   H     99.65000000    66.16000000    18.44000000
   N     99.28000000    66.24000000    20.89000000
   C     98.63000000    65.87000000    22.13000000
   C     99.71000000    65.54000000    23.14000000
   O    100.76000000    65.05000000    22.75000000
   C     97.76000000    64.62000000    21.93000000
   C     96.67000000    64.83000000    20.90000000
   C     95.44000000    65.40000000    21.27000000
   C     96.93000000    64.53000000    19.56000000
   C     94.41000000    65.54000000    20.33000000
   C     95.92000000    64.69000000    18.61000000
   C     94.66000000    65.20000000    18.98000000
   O     93.63000000    65.34000000    18.10000000
   H    100.00000000    65.66000000    20.49000000
   H     98.09000000    66.74000000    22.51000000
   H     97.36000000    64.35000000    22.90000000
   H     98.32000000    63.70000000    21.80000000
   H     95.21000000    65.81000000    22.24000000
   H     97.82000000    64.07000000    19.17000000
   H     93.51000000    66.07000000    20.58000000
   H     96.12000000    64.34000000    17.61000000
   H     93.88000000    65.28000000    17.18000000
   N     99.37000000    65.71000000    24.43000000
   C    100.31000000    65.33000000    25.47000000
   C    100.13000000    63.93000000    26.05000000
   O    100.99000000    63.26000000    26.61000000
   C    100.33000000    66.40000000    26.55000000
   C     98.94000000    66.53000000    27.17000000
   C    101.36000000    66.12000000    27.64000000
   C     98.70000000    67.86000000    27.88000000
   H     98.45000000    65.97000000    24.75000000
   H    101.31000000    65.33000000    25.05000000
   H    100.57000000    67.36000000    26.10000000
   H     98.80000000    65.67000000    27.82000000
   H     98.18000000    66.46000000    26.39000000
   H    102.35000000    66.22000000    27.20000000
   H    101.26000000    66.85000000    28.45000000
   H    101.23000000    65.12000000    28.07000000
   H     99.40000000    67.98000000    28.70000000
   H     99.00000000    68.63000000    27.16000000
   H     97.66000000    67.89000000    28.22000000
   N     98.93000000    63.36000000    25.92000000
   C     98.52000000    62.08000000    26.47000000
   C     97.23000000    62.07000000    27.28000000
   O     96.53000000    61.06000000    27.30000000
   C     98.35000000    61.03000000    25.38000000
   O     99.43000000    61.01000000    24.48000000
   H     98.20000000    63.91000000    25.48000000
   H     99.33000000    61.75000000    27.13000000
   H     97.45000000    61.15000000    24.77000000
   H     98.24000000    60.03000000    25.80000000
   H     99.08000000    61.00000000    23.58000000
   N     96.87000000    63.22000000    27.85000000
   C     95.71000000    63.32000000    28.72000000
   C     94.90000000    64.59000000    28.55000000
   O     95.44000000    65.70000000    28.55000000
   C     96.20000000    63.19000000    30.16000000
   H     97.36000000    64.03000000    27.51000000
   H     95.02000000    62.51000000    28.46000000
   H     95.42000000    63.46000000    30.88000000
   H     96.54000000    62.17000000    30.33000000
   H     97.09000000    63.80000000    30.28000000
   N     93.58000000    64.42000000    28.56000000
   C     92.55000000    65.42000000    28.73000000
   C     92.58000000    66.57000000    27.74000000
   O     91.82000000    67.53000000    27.88000000
   C     92.51000000    65.73000000    30.23000000
   H     93.24000000    63.47000000    28.67000000
   H     91.66000000    64.81000000    28.56000000
   H     93.14000000    65.07000000    30.81000000
   H     92.99000000    66.69000000    30.43000000
   H     91.52000000    65.78000000    30.70000000
   N     93.29000000    66.58000000    26.61000000
   C     93.03000000    67.46000000    25.49000000
   C     91.92000000    66.90000000    24.62000000
   O     91.25000000    67.69000000    23.95000000
   C     94.34000000    67.51000000    24.71000000
   C     95.48000000    68.13000000    25.52000000
   C     95.18000000    69.53000000    26.03000000
   O     94.78000000    70.40000000    25.24000000
   O     95.50000000    69.75000000    27.22000000
   H     94.05000000    65.92000000    26.50000000
   H     92.73000000    68.47000000    25.76000000
   H     94.13000000    68.02000000    23.77000000
   H     94.60000000    66.51000000    24.37000000
   H     96.32000000    68.21000000    24.84000000
   H     95.78000000    67.49000000    26.35000000
   N     91.64000000    65.59000000    24.60000000
   C     90.36000000    65.02000000    24.24000000
   H     89.63900000    65.82100000    24.07700000
   H     90.46600000    64.43600000    23.32600000
   H     90.01000000    64.37400000    25.04500000
   H     92.29000000    65.04000000    25.15000000
  Ca     94.54000000    71.30000000    22.89000000
   O     93.13000000    70.42000000    20.81000000
   H     92.19000000    70.60000000    20.80000000
   H     93.28000000    69.91000000    20.01000000
   O     92.10000000    70.37000000    23.73000000
   H     91.84000000    69.45000000    23.75000000
   H     91.59000000    70.77000000    24.44000000
   O     95.56000000    69.24000000    21.56000000
   H     96.48000000    69.00000000    21.60000000
   H     95.24000000    68.82000000    20.76000000
   O     97.11000000    70.89000000    23.56000000
   H     97.92000000    70.42000000    23.35000000
   H     97.19000000    71.13000000    24.48000000
   O     95.99000000    72.06000000    20.51000000
   H     96.01000000    71.67000000    19.64000000
   H     96.84000000    72.47000000    20.61000000

Ca 1.00



