%chk=loop1.cluster117.chk
%nprocshared=20
%mem=10GB
%nosave
#b3lyp/svp scf=(tight,noincore,xqc) Test 
#IOP(5/87=12) Density=Current Pop=(MK,readradii) iop(6/33=2) iop(6/42=6)

loop1.cluster117 

   0  1 
   C     87.75000000    13.11000000    70.91000000
   C     86.55000000    13.41000000    70.02000000
   O     85.67000000    12.55000000    69.97000000
   H     88.55200000    13.81400000    70.68700000
   H     87.46100000    13.20900000    71.95600000
   H     88.09700000    12.09400000    70.72300000
   N     86.57000000    14.52000000    69.29000000
   C     85.58000000    14.85000000    68.28000000
   C     85.78000000    13.99000000    67.04000000
   O     86.90000000    13.53000000    66.79000000
   C     85.64000000    16.33000000    67.92000000
   C     85.58000000    17.23000000    69.14000000
   O     84.92000000    16.97000000    70.17000000
   O     86.13000000    18.35000000    69.19000000
   H     87.26000000    15.22000000    69.52000000
   H     84.59000000    14.70000000    68.72000000
   H     84.89000000    16.61000000    67.18000000
   H     86.56000000    16.57000000    67.39000000
   N     84.71000000    13.74000000    66.28000000
   C     84.83000000    12.95000000    65.07000000
   C     85.47000000    13.71000000    63.92000000
   O     85.53000000    13.15000000    62.82000000
   C     83.44000000    12.47000000    64.66000000
   C     82.63000000    11.90000000    65.83000000
   C     81.43000000    11.07000000    65.40000000
   C     80.47000000    10.70000000    66.53000000
   N     79.35000000     9.84000000    66.12000000
   H     83.79000000    14.07000000    66.56000000
   H     85.54000000    12.15000000    65.28000000
   H     83.57000000    11.73000000    63.87000000
   H     82.82000000    13.24000000    64.20000000
   H     82.33000000    12.68000000    66.53000000
   H     83.30000000    11.31000000    66.45000000
   H     81.91000000    10.17000000    64.99000000
   H     80.89000000    11.64000000    64.65000000
   H     80.11000000    11.60000000    67.02000000
   H     81.00000000    10.16000000    67.32000000
   H     78.90000000    10.38000000    65.38000000
   H     79.74000000     8.97000000    65.78000000
   H     78.69000000     9.62000000    66.86000000
   N     85.81000000    14.97000000    64.18000000
   C     86.28000000    15.88000000    63.15000000
   C     87.21000000    16.86000000    63.83000000
   O     86.87000000    17.38000000    64.89000000
   C     85.16000000    16.53000000    62.33000000
   C     85.70000000    17.37000000    61.18000000
   O     86.57000000    16.95000000    60.38000000
   O     85.19000000    18.50000000    61.03000000
   H     85.57000000    15.38000000    65.07000000
   H     86.95000000    15.35000000    62.47000000
   H     84.50000000    17.17000000    62.91000000
   H     84.44000000    15.79000000    62.00000000
   N     88.39000000    17.21000000    63.29000000
   C     89.38000000    18.04000000    63.94000000
   C     90.57000000    18.27000000    63.01000000
   O     90.92000000    17.43000000    62.19000000
   H     88.71000000    16.79000000    62.43000000
   H     89.76000000    17.45000000    64.78000000
   H     88.93000000    18.99000000    64.22000000
   N     91.18000000    19.46000000    63.09000000
   C     92.42000000    19.77000000    62.41000000
   C     93.38000000    20.63000000    63.22000000
   O     93.00000000    21.33000000    64.16000000
   C     92.09000000    20.40000000    61.06000000
   C     91.39000000    19.44000000    60.11000000
   O     90.24000000    19.71000000    59.71000000
   O     92.01000000    18.43000000    59.74000000
   H     90.80000000    20.20000000    63.67000000
   H     93.00000000    18.86000000    62.25000000
   H     93.07000000    20.56000000    60.61000000
   H     91.61000000    21.38000000    61.11000000
   N     94.67000000    20.45000000    62.95000000
   C     95.77000000    20.93000000    63.76000000
   C     96.09000000    20.03000000    64.94000000
   O     97.13000000    19.38000000    65.02000000
   H     94.89000000    20.02000000    62.06000000
   H     95.39000000    21.86000000    64.17000000
   H     96.68000000    21.20000000    63.21000000
   N     95.11000000    20.06000000    65.84000000
   C     95.00000000    19.14000000    66.96000000
   C     94.86000000    19.89000000    68.28000000
   O     94.62000000    21.09000000    68.30000000
   C     93.89000000    18.11000000    66.79000000
   C     92.45000000    18.60000000    66.68000000
   O     94.09000000    17.39000000    65.60000000
   H     94.28000000    20.57000000    65.57000000
   H     95.90000000    18.53000000    67.05000000
   H     93.95000000    17.32000000    67.54000000
   H     93.31000000    16.85000000    65.42000000
   H     92.39000000    19.28000000    65.84000000
   H     91.79000000    17.74000000    66.54000000
   H     92.18000000    19.17000000    67.57000000
   N     95.16000000    19.23000000    69.40000000
   C     94.91000000    19.75000000    70.73000000
   C     96.15000000    20.31000000    71.41000000
   O     96.33000000    20.27000000    72.62000000
   C     94.19000000    18.73000000    71.60000000
   C     94.97000000    17.45000000    71.89000000
   C     92.81000000    18.44000000    71.03000000
   C     94.52000000    16.61000000    73.08000000
   H     95.52000000    18.28000000    69.39000000
   H     94.24000000    20.61000000    70.68000000
   H     94.07000000    19.29000000    72.53000000
   H     96.04000000    17.61000000    71.98000000
   H     94.98000000    16.82000000    71.00000000
   H     92.88000000    18.06000000    70.01000000
   H     92.30000000    17.77000000    71.73000000
   H     92.27000000    19.38000000    70.96000000
   H     93.60000000    16.05000000    72.93000000
   H     95.34000000    15.93000000    73.34000000
   H     94.44000000    17.37000000    73.85000000
   N     97.15000000    20.75000000    70.63000000
   C     98.43000000    21.29000000    71.03000000
   C     99.61000000    20.70000000    70.27000000
   O     99.48000000    20.31000000    69.11000000
   C     98.55000000    22.75000000    70.59000000
   C     97.30000000    23.59000000    70.85000000
   O     99.69000000    23.37000000    71.13000000
   H     96.86000000    20.79000000    69.66000000
   H     98.54000000    21.18000000    72.11000000
   H     98.78000000    22.86000000    69.53000000
   H    100.38000000    23.43000000    70.47000000
   H     96.49000000    23.29000000    70.18000000
   H     96.94000000    23.28000000    71.82000000
   H     97.53000000    24.64000000    70.67000000
   N    100.74000000    20.73000000    70.97000000
   C    102.04000000    20.39000000    70.42000000
   C    102.84000000    19.36000000    71.20000000
   O    103.82000000    18.88000000    70.63000000
   C    102.86000000    21.64000000    70.09000000
   C    103.49000000    22.30000000    71.31000000
   O    102.03000000    22.60000000    69.48000000
   H    100.73000000    21.25000000    71.84000000
   H    101.93000000    19.86000000    69.48000000
   H    103.65000000    21.41000000    69.37000000
   H    101.82000000    22.36000000    68.58000000
   H    103.96000000    23.26000000    71.10000000
   H    102.73000000    22.55000000    72.05000000
   H    104.31000000    21.65000000    71.61000000
   N    102.49000000    18.98000000    72.44000000
   C    103.02000000    17.78000000    73.04000000
   C    102.43000000    16.49000000    72.48000000
   O    101.24000000    16.37000000    72.20000000
   C    102.68000000    17.86000000    74.52000000
   C    103.22000000    16.76000000    75.43000000
   C    102.94000000    17.12000000    76.88000000
   C    103.36000000    16.09000000    77.92000000
   N    102.39000000    14.97000000    77.90000000
   H    101.64000000    19.39000000    72.78000000
   H    104.08000000    17.76000000    72.79000000
   H    101.61000000    17.78000000    74.73000000
   H    103.00000000    18.86000000    74.82000000
   H    104.27000000    16.55000000    75.23000000
   H    102.68000000    15.84000000    75.20000000
   H    101.87000000    17.31000000    76.91000000
   H    103.50000000    18.03000000    77.11000000
   H    103.45000000    16.52000000    78.91000000
   H    104.34000000    15.73000000    77.62000000
   H    101.64000000    15.16000000    78.54000000
   H    102.17000000    14.70000000    76.95000000
   H    102.88000000    14.13000000    78.18000000
   N    103.28000000    15.45000000    72.49000000
   C    102.87000000    14.12000000    72.09000000
   C    102.45000000    13.91000000    70.64000000
   O    102.81000000    14.71000000    69.79000000
   C    104.04000000    13.22000000    72.47000000
   C    104.58000000    13.21000000    73.90000000
   C    103.58000000    13.13000000    75.04000000
   O    102.43000000    12.75000000    74.72000000
   O    104.00000000    13.54000000    76.15000000
   H    104.26000000    15.63000000    72.66000000
   H    102.01000000    13.82000000    72.69000000
   H    104.94000000    13.50000000    71.92000000
   H    103.87000000    12.20000000    72.14000000
   H    105.29000000    14.04000000    73.95000000
   H    105.23000000    12.36000000    74.09000000
   N    101.70000000    12.85000000    70.32000000
   C    100.93000000    11.95000000    71.15000000
   H     99.95400000    11.78300000    70.69500000
   H    101.45600000    10.99900000    71.24100000
   H    100.79900000    12.38900000    72.13900000
   H    101.37000000    12.76000000    69.37000000
  Ca     87.21000000    15.10000000    58.77000000
   O     86.85000000    13.19000000    60.50000000
   H     87.59000000    12.63000000    60.73000000
   H     86.31000000    13.21000000    61.29000000
   O     84.57000000    14.73000000    59.13000000
   H     84.07000000    14.11000000    59.66000000
   H     83.94000000    15.41000000    58.89000000
   O     86.90000000    13.03000000    57.02000000
   H     86.11000000    12.85000000    56.50000000
   H     87.63000000    12.81000000    56.43000000
   O     89.14000000    17.34000000    59.77000000
   H     89.52000000    18.21000000    59.64000000
   H     88.25000000    17.52000000    60.09000000
   O     88.62000000    16.43000000    56.63000000
   H     88.33000000    16.96000000    55.88000000
   H     89.52000000    16.71000000    56.79000000
   O     85.76000000    16.98000000    57.25000000
   H     86.17000000    17.38000000    56.49000000
   H     84.82000000    17.10000000    57.11000000

Ca 1.00



