%chk=loop3.cluster209.chk
%nprocshared=20
%mem=10GB
%nosave
#b3lyp/svp scf=(tight,noincore,xqc) Test 
#IOP(5/87=12) Density=Current Pop=(MK,readradii) iop(6/33=2) iop(6/42=6)

loop3.cluster209 

   0  1 
   C     76.27000000    50.96000000    29.97000000
   C     75.92000000    49.81000000    30.91000000
   O     75.03000000    49.95000000    31.74000000
   H     77.28400000    50.82500000    29.59300000
   H     75.57100000    50.97300000    29.13400000
   H     76.20700000    51.90400000    30.51100000
   N     76.69000000    48.72000000    30.86000000
   C     76.50000000    47.51000000    31.62000000
   C     77.71000000    46.99000000    32.40000000
   O     78.87000000    47.29000000    32.13000000
   C     76.05000000    46.49000000    30.58000000
   C     75.78000000    45.16000000    31.25000000
   O     74.62000000    44.75000000    31.46000000
   O     76.74000000    44.36000000    31.40000000
   H     77.35000000    48.71000000    30.09000000
   H     75.76000000    47.65000000    32.41000000
   H     76.87000000    46.31000000    29.88000000
   H     75.15000000    46.86000000    30.08000000
   N     77.48000000    46.25000000    33.49000000
   C     78.44000000    46.09000000    34.56000000
   C     79.43000000    44.96000000    34.32000000
   O     80.43000000    44.82000000    35.02000000
   C     77.65000000    45.92000000    35.85000000
   C     77.25000000    47.28000000    36.42000000
   C     76.20000000    47.35000000    37.53000000
   C     76.30000000    48.73000000    38.18000000
   N     75.11000000    49.00000000    39.01000000
   H     76.53000000    46.04000000    33.76000000
   H     79.03000000    47.00000000    34.69000000
   H     78.35000000    45.39000000    36.49000000
   H     76.88000000    45.15000000    35.90000000
   H     76.93000000    47.92000000    35.59000000
   H     78.20000000    47.68000000    36.75000000
   H     76.49000000    46.61000000    38.28000000
   H     75.23000000    47.09000000    37.12000000
   H     76.54000000    49.45000000    37.40000000
   H     77.23000000    48.78000000    38.73000000
   H     74.82000000    48.28000000    39.66000000
   H     75.25000000    49.74000000    39.67000000
   H     74.36000000    49.29000000    38.39000000
   N     79.21000000    44.11000000    33.31000000
   C     80.16000000    43.16000000    32.78000000
   C     80.37000000    43.45000000    31.30000000
   O     81.28000000    42.95000000    30.65000000
   C     79.78000000    41.69000000    32.98000000
   C     78.31000000    41.48000000    32.64000000
   O     77.96000000    41.37000000    31.44000000
   O     77.38000000    41.41000000    33.46000000
   H     78.37000000    44.33000000    32.79000000
   H     81.13000000    43.38000000    33.22000000
   H     79.87000000    41.39000000    34.02000000
   H     80.32000000    40.99000000    32.34000000
   N     79.71000000    44.47000000    30.72000000
   C     79.86000000    44.90000000    29.35000000
   C     78.95000000    44.19000000    28.36000000
   O     78.78000000    44.71000000    27.26000000
   H     78.89000000    44.78000000    31.22000000
   H     80.91000000    44.69000000    29.14000000
   H     79.92000000    45.99000000    29.36000000
   N     78.48000000    42.98000000    28.66000000
   C     77.53000000    42.35000000    27.77000000
   C     76.12000000    42.87000000    27.99000000
   O     75.64000000    43.09000000    29.10000000
   C     77.73000000    40.87000000    28.06000000
   C     76.47000000    40.10000000    28.44000000
   N     76.09000000    39.13000000    27.60000000
   O     75.79000000    40.22000000    29.45000000
   H     78.66000000    42.59000000    29.58000000
   H     77.82000000    42.47000000    26.72000000
   H     78.60000000    40.68000000    28.69000000
   H     78.02000000    40.44000000    27.10000000
   H     76.63000000    38.90000000    26.78000000
   H     75.34000000    38.50000000    27.84000000
   N     75.41000000    42.98000000    26.86000000
   C     74.16000000    43.71000000    26.82000000
   C     72.94000000    43.18000000    27.56000000
   O     72.11000000    43.93000000    28.06000000
   H     75.84000000    42.67000000    26.00000000
   H     73.79000000    43.74000000    25.80000000
   H     74.23000000    44.73000000    27.20000000
   N     72.80000000    41.86000000    27.70000000
   C     71.80000000    41.26000000    28.56000000
   C     72.04000000    41.49000000    30.05000000
   O     73.19000000    41.80000000    30.34000000
   C     71.56000000    39.79000000    28.22000000
   C     71.22000000    39.52000000    26.77000000
   C     72.22000000    39.10000000    25.88000000
   C     69.92000000    39.73000000    26.29000000
   C     71.88000000    38.73000000    24.57000000
   C     69.57000000    39.47000000    24.96000000
   C     70.58000000    39.01000000    24.09000000
   O     70.35000000    38.73000000    22.78000000
   H     73.55000000    41.23000000    27.46000000
   H     70.90000000    41.82000000    28.31000000
   H     70.77000000    39.32000000    28.80000000
   H     72.50000000    39.28000000    28.39000000
   H     73.24000000    38.98000000    26.21000000
   H     69.11000000    39.97000000    26.97000000
   H     72.66000000    38.31000000    23.95000000
   H     68.56000000    39.60000000    24.60000000
   H     69.58000000    39.11000000    22.35000000
   N     71.06000000    41.32000000    30.94000000
   C     71.01000000    41.72000000    32.34000000
   C     72.08000000    41.20000000    33.29000000
   O     73.24000000    41.55000000    33.11000000
   C     70.86000000    43.24000000    32.46000000
   C     70.34000000    43.55000000    33.86000000
   C     69.87000000    43.70000000    31.39000000
   C     70.40000000    45.06000000    34.09000000
   H     70.19000000    41.09000000    30.49000000
   H     70.08000000    41.26000000    32.69000000
   H     71.80000000    43.69000000    32.15000000
   H     70.91000000    43.10000000    34.67000000
   H     69.30000000    43.25000000    33.98000000
   H     69.44000000    44.66000000    31.67000000
   H     70.42000000    43.87000000    30.47000000
   H     69.16000000    42.90000000    31.22000000
   H     70.06000000    45.34000000    35.09000000
   H     71.42000000    45.42000000    33.93000000
   H     69.84000000    45.69000000    33.40000000
   N     71.63000000    40.58000000    34.38000000
   C     72.44000000    40.09000000    35.48000000
   C     71.68000000    39.14000000    36.39000000
   O     72.34000000    38.37000000    37.08000000
   C     72.90000000    41.35000000    36.20000000
   O     71.70000000    41.96000000    36.64000000
   H     70.66000000    40.28000000    34.39000000
   H     73.26000000    39.53000000    35.02000000
   H     73.33000000    42.09000000    35.52000000
   H     73.48000000    41.02000000    37.06000000
   H     71.97000000    42.82000000    36.97000000
   N     70.35000000    39.17000000    36.33000000
   C     69.47000000    38.45000000    37.23000000
   C     69.89000000    38.21000000    38.67000000
   O     70.16000000    37.09000000    39.10000000
   C     69.03000000    37.17000000    36.51000000
   H     69.89000000    39.85000000    35.74000000
   H     68.55000000    39.02000000    37.32000000
   H     69.97000000    36.64000000    36.34000000
   H     68.26000000    36.69000000    37.10000000
   H     68.52000000    37.52000000    35.61000000
   N     70.11000000    39.22000000    39.52000000
   C     70.05000000    40.66000000    39.32000000
   C     68.94000000    41.46000000    39.99000000
   O     68.57000000    41.20000000    41.13000000
   C     71.42000000    41.13000000    39.78000000
   H     70.16000000    38.96000000    40.49000000
   H     69.91000000    40.94000000    38.28000000
   H     71.50000000    42.20000000    39.62000000
   H     71.61000000    40.91000000    40.83000000
   H     72.15000000    40.70000000    39.09000000
   N     68.40000000    42.56000000    39.45000000
   C     68.57000000    43.18000000    38.15000000
   C     67.32000000    43.65000000    37.43000000
   O     67.42000000    44.10000000    36.29000000
   C     69.59000000    44.31000000    38.21000000
   C     69.04000000    45.37000000    39.15000000
   C     70.07000000    46.44000000    39.48000000
   O     70.02000000    47.40000000    38.68000000
   O     70.82000000    46.42000000    40.48000000
   H     67.75000000    43.02000000    40.07000000
   H     68.99000000    42.42000000    37.49000000
   H     69.85000000    44.76000000    37.25000000
   H     70.54000000    43.91000000    38.57000000
   H     68.67000000    44.97000000    40.09000000
   H     68.19000000    45.84000000    38.66000000
   N     66.15000000    43.50000000    38.05000000
   C     64.86000000    43.87000000    37.50000000
   H     64.15800000    44.05400000    38.31300000
   H     64.96600000    44.77400000    36.90100000
   H     64.48600000    43.06000000    36.87400000
   H     66.14000000    43.32000000    39.04000000
  Ca     75.49000000    41.98000000    31.70000000
   O     75.07000000    39.44000000    32.35000000
   H     74.33000000    38.91000000    32.07000000
   H     75.54000000    38.90000000    32.99000000
   O     75.54000000    43.46000000    34.16000000
   H     75.07000000    44.28000000    34.04000000
   H     75.59000000    43.35000000    35.11000000

Ca 1.00



