%chk=loop4.cluster34.chk
%nprocshared=20
%mem=10GB
%nosave
#b3lyp/svp scf=(tight,noincore,xqc) Test 
#IOP(5/87=12) Density=Current Pop=(MK,readradii) iop(6/33=2) iop(6/42=6)

loop4.cluster34 

   -3  1 
   C     48.04000000    27.50000000    41.38000000
   C     48.25000000    26.81000000    42.73000000
   O     48.66000000    27.45000000    43.69000000
   H     47.31600000    28.30600000    41.49400000
   H     48.98700000    27.91000000    41.03000000
   H     47.66700000    26.77600000    40.65600000
   N     47.96000000    25.53000000    42.93000000
   C     48.13000000    24.71000000    44.11000000
   C     47.42000000    25.18000000    45.37000000
   O     47.74000000    24.72000000    46.47000000
   C     49.62000000    24.39000000    44.27000000
   C     50.37000000    23.99000000    43.01000000
   O     51.52000000    24.49000000    42.99000000
   O     49.88000000    23.35000000    42.05000000
   H     47.70000000    25.02000000    42.09000000
   H     47.75000000    23.71000000    43.91000000
   H     49.70000000    23.56000000    44.98000000
   H     50.04000000    25.23000000    44.81000000
   N     46.41000000    26.03000000    45.20000000
   C     45.62000000    26.71000000    46.21000000
   C     44.74000000    25.78000000    47.03000000
   O     43.93000000    25.06000000    46.45000000
   C     44.87000000    27.95000000    45.74000000
   C     45.79000000    29.12000000    45.40000000
   C     43.74000000    28.39000000    46.67000000
   C     45.10000000    30.33000000    44.75000000
   H     46.23000000    26.35000000    44.26000000
   H     46.35000000    27.18000000    46.87000000
   H     44.53000000    27.69000000    44.74000000
   H     46.51000000    28.83000000    44.64000000
   H     46.28000000    29.45000000    46.31000000
   H     42.96000000    27.63000000    46.56000000
   H     43.98000000    28.55000000    47.72000000
   H     43.30000000    29.32000000    46.30000000
   H     44.38000000    30.06000000    43.98000000
   H     44.63000000    30.99000000    45.48000000
   H     45.90000000    30.82000000    44.19000000
   N     44.70000000    25.72000000    48.37000000
   C     45.40000000    26.60000000    49.28000000
   C     46.71000000    26.02000000    49.80000000
   O     47.68000000    26.77000000    49.96000000
   C     44.55000000    27.12000000    50.44000000
   C     43.94000000    26.06000000    51.34000000
   O     43.54000000    26.27000000    52.51000000
   O     43.75000000    24.95000000    50.80000000
   H     44.04000000    25.05000000    48.73000000
   H     45.65000000    27.51000000    48.75000000
   H     43.76000000    27.79000000    50.09000000
   H     45.09000000    27.87000000    51.02000000
   N     46.76000000    24.71000000    50.04000000
   C     47.89000000    24.12000000    50.74000000
   C     47.97000000    24.66000000    52.16000000
   O     46.98000000    25.16000000    52.70000000
   H     45.85000000    24.29000000    49.93000000
   H     48.79000000    24.44000000    50.23000000
   H     47.82000000    23.03000000    50.78000000
   N     49.14000000    24.64000000    52.80000000
   C     49.36000000    25.42000000    54.00000000
   C     49.00000000    26.90000000    53.98000000
   O     48.47000000    27.44000000    54.95000000
   C     50.79000000    25.30000000    54.51000000
   C     51.90000000    25.56000000    53.49000000
   O     52.28000000    26.75000000    53.42000000
   O     52.37000000    24.63000000    52.81000000
   H     49.95000000    24.35000000    52.27000000
   H     48.70000000    24.91000000    54.70000000
   H     50.91000000    24.31000000    54.94000000
   H     50.84000000    25.90000000    55.42000000
   N     49.09000000    27.61000000    52.85000000
   C     48.69000000    29.00000000    52.70000000
   C     49.73000000    30.03000000    53.09000000
   O     49.54000000    31.24000000    52.96000000
   H     49.40000000    27.10000000    52.04000000
   H     47.72000000    29.04000000    53.21000000
   H     48.42000000    29.24000000    51.67000000
   N     50.96000000    29.55000000    53.29000000
   C     52.16000000    30.28000000    53.62000000
   C     52.60000000    31.15000000    52.45000000
   O     53.46000000    32.01000000    52.63000000
   C     52.06000000    30.96000000    54.98000000
   C     51.71000000    29.90000000    56.03000000
   C     51.63000000    30.59000000    57.38000000
   N     51.38000000    29.73000000    58.38000000
   O     51.60000000    31.80000000    57.59000000
   H     51.10000000    28.56000000    53.44000000
   H     53.00000000    29.59000000    53.71000000
   H     51.34000000    31.77000000    55.08000000
   H     53.04000000    31.35000000    55.27000000
   H     52.54000000    29.21000000    56.08000000
   H     50.76000000    29.42000000    55.77000000
   H     51.34000000    28.74000000    58.16000000
   H     51.34000000    30.01000000    59.35000000
   N     52.14000000    30.96000000    51.21000000
   C     52.54000000    31.59000000    49.97000000
   C     53.95000000    31.22000000    49.53000000
   O     54.14000000    30.39000000    48.65000000
   C     51.50000000    31.38000000    48.88000000
   C     50.06000000    31.57000000    49.37000000
   C     51.72000000    32.24000000    47.64000000
   H     51.50000000    30.19000000    51.06000000
   H     52.55000000    32.67000000    50.09000000
   H     51.57000000    30.34000000    48.54000000
   H     49.39000000    31.55000000    48.52000000
   H     49.81000000    30.66000000    49.90000000
   H     49.93000000    32.46000000    49.98000000
   H     50.98000000    32.02000000    46.88000000
   H     51.69000000    33.28000000    47.96000000
   H     52.74000000    32.05000000    47.29000000
   N     55.02000000    31.80000000    50.10000000
   C     56.39000000    31.51000000    49.73000000
   C     56.77000000    32.09000000    48.38000000
   O     56.33000000    33.14000000    47.92000000
   C     57.30000000    31.93000000    50.88000000
   C     58.73000000    32.26000000    50.48000000
   N     59.55000000    31.24000000    50.20000000
   O     59.18000000    33.40000000    50.38000000
   H     54.82000000    32.39000000    50.89000000
   H     56.47000000    30.42000000    49.74000000
   H     57.21000000    31.06000000    51.54000000
   H     56.87000000    32.77000000    51.41000000
   H     59.22000000    30.28000000    50.23000000
   H     60.54000000    31.36000000    50.04000000
   N     57.60000000    31.34000000    47.63000000
   C     58.17000000    31.71000000    46.36000000
   C     58.46000000    30.50000000    45.48000000
   O     59.58000000    30.28000000    45.02000000
   C     59.37000000    32.62000000    46.60000000
   C     59.75000000    33.60000000    45.52000000
   C     59.29000000    33.45000000    44.20000000
   C     60.72000000    34.56000000    45.82000000
   C     59.74000000    34.36000000    43.24000000
   C     61.16000000    35.46000000    44.84000000
   C     60.74000000    35.32000000    43.50000000
   O     61.13000000    36.15000000    42.49000000
   H     57.91000000    30.49000000    48.06000000
   H     57.46000000    32.31000000    45.79000000
   H     60.26000000    32.04000000    46.85000000
   H     59.16000000    33.24000000    47.48000000
   H     58.53000000    32.73000000    43.96000000
   H     61.16000000    34.54000000    46.80000000
   H     59.27000000    34.31000000    42.27000000
   H     61.89000000    36.21000000    45.12000000
   H     61.87000000    36.66000000    42.82000000
   N     57.46000000    29.62000000    45.36000000
   C     57.67000000    28.21000000    45.08000000
   C     57.86000000    27.90000000    43.60000000
   O     58.84000000    27.23000000    43.29000000
   C     56.56000000    27.42000000    45.77000000
   C     56.34000000    25.93000000    45.50000000
   C     57.36000000    25.11000000    46.27000000
   O     57.10000000    24.21000000    47.11000000
   O     58.55000000    25.33000000    45.99000000
   H     56.65000000    29.88000000    45.89000000
   H     58.59000000    27.88000000    45.56000000
   H     55.62000000    27.97000000    45.68000000
   H     56.77000000    27.48000000    46.83000000
   H     56.43000000    25.71000000    44.43000000
   H     55.34000000    25.68000000    45.84000000
   N     57.14000000    28.43000000    42.61000000
   C     55.80000000    28.98000000    42.65000000
   C     55.51000000    30.04000000    41.60000000
   O     56.38000000    30.27000000    40.76000000
   C     54.83000000    27.83000000    42.41000000
   C     55.02000000    27.34000000    40.98000000
   C     54.02000000    26.21000000    40.82000000
   O     52.83000000    26.39000000    40.47000000
   O     54.35000000    25.02000000    41.03000000
   H     57.49000000    28.36000000    41.67000000
   H     55.65000000    29.34000000    43.66000000
   H     53.82000000    28.19000000    42.58000000
   H     55.10000000    27.03000000    43.11000000
   H     56.05000000    27.05000000    40.82000000
   H     54.77000000    28.10000000    40.24000000
   N     54.37000000    30.74000000    41.53000000
   C     54.06000000    31.84000000    40.64000000
   H     53.20100000    32.38800000    41.02600000
   H     54.91800000    32.50900000    40.57600000
   H     53.82700000    31.45100000    39.64900000
   H     53.68000000    30.47000000    42.22000000
  Ca     51.83000000    24.07000000    40.47000000
   O     52.30000000    24.70000000    37.91000000
   H     52.28000000    24.08000000    37.18000000
   H     52.69000000    25.49000000    37.54000000
   O     52.95000000    22.13000000    42.22000000
   H     52.64000000    21.24000000    42.39000000
   H     53.33000000    22.42000000    43.05000000
   O     50.02000000    22.31000000    39.39000000
   H     49.51000000    22.09000000    38.62000000
   H     50.06000000    21.49000000    39.89000000
   O     53.17000000    22.21000000    39.12000000
   H     53.09000000    21.91000000    38.22000000
   H     53.87000000    21.68000000    39.49000000

Ca 1.00



