%chk=loop3.cluster3.chk
%nprocshared=20
%mem=10GB
%nosave
#b3lyp/svp scf=(tight,noincore,xqc) Test 
#IOP(5/87=12) Density=Current Pop=(MK,readradii) iop(6/33=2) iop(6/42=6)

loop3.cluster3 

   0  1 
   C     27.39000000    43.98000000    28.99000000
   C     28.28000000    43.71000000    30.19000000
   O     27.81000000    43.86000000    31.31000000
   H     26.50300000    44.52500000    29.31200000
   H     27.93600000    44.57500000    28.25800000
   H     27.09000000    43.03400000    28.53900000
   N     29.57000000    43.41000000    29.99000000
   C     30.47000000    43.30000000    31.11000000
   C     30.96000000    44.70000000    31.45000000
   O     31.67000000    45.35000000    30.68000000
   C     31.60000000    42.29000000    30.96000000
   C     32.47000000    41.92000000    32.16000000
   O     32.25000000    42.51000000    33.24000000
   O     33.34000000    41.03000000    32.02000000
   H     29.87000000    43.29000000    29.03000000
   H     29.79000000    42.98000000    31.90000000
   H     32.23000000    42.53000000    30.11000000
   H     31.10000000    41.38000000    30.65000000
   N     30.72000000    45.12000000    32.70000000
   C     30.68000000    46.50000000    33.15000000
   C     32.09000000    47.00000000    33.45000000
   O     32.25000000    48.21000000    33.54000000
   C     29.69000000    46.66000000    34.30000000
   C     29.29000000    48.10000000    34.60000000
   C     28.53000000    48.02000000    35.92000000
   C     28.41000000    49.39000000    36.58000000
   N     27.52000000    50.32000000    35.88000000
   H     30.19000000    44.48000000    33.27000000
   H     30.39000000    47.21000000    32.38000000
   H     30.12000000    46.20000000    35.20000000
   H     28.75000000    46.11000000    34.20000000
   H     28.59000000    48.54000000    33.89000000
   H     30.15000000    48.76000000    34.68000000
   H     29.20000000    47.46000000    36.58000000
   H     27.60000000    47.45000000    35.89000000
   H     29.43000000    49.75000000    36.71000000
   H     28.07000000    49.14000000    37.59000000
   H     27.52000000    51.25000000    36.28000000
   H     27.84000000    50.64000000    34.97000000
   H     26.56000000    50.02000000    35.85000000
   N     33.05000000    46.08000000    33.48000000
   C     34.46000000    46.26000000    33.80000000
   C     35.33000000    45.34000000    32.96000000
   O     36.46000000    45.68000000    32.59000000
   C     34.88000000    46.22000000    35.26000000
   C     34.34000000    45.08000000    36.10000000
   O     33.55000000    44.29000000    35.53000000
   O     34.59000000    44.94000000    37.32000000
   H     32.77000000    45.14000000    33.25000000
   H     34.72000000    47.31000000    33.64000000
   H     34.66000000    47.20000000    35.67000000
   H     35.97000000    46.11000000    35.22000000
   N     34.77000000    44.27000000    32.40000000
   C     35.36000000    43.46000000    31.36000000
   C     36.28000000    42.44000000    32.02000000
   O     37.12000000    41.89000000    31.32000000
   H     33.83000000    43.99000000    32.66000000
   H     35.82000000    44.07000000    30.58000000
   H     34.51000000    43.00000000    30.86000000
   N     36.07000000    42.01000000    33.27000000
   C     36.85000000    40.98000000    33.92000000
   C     36.58000000    39.57000000    33.39000000
   O     37.46000000    38.72000000    33.32000000
   C     36.60000000    40.96000000    35.43000000
   C     35.20000000    40.54000000    35.86000000
   N     35.06000000    39.61000000    36.81000000
   O     34.17000000    40.79000000    35.22000000
   H     35.23000000    42.30000000    33.76000000
   H     37.92000000    41.15000000    33.83000000
   H     36.81000000    41.98000000    35.74000000
   H     37.27000000    40.31000000    35.99000000
   H     35.85000000    39.27000000    37.34000000
   H     34.12000000    39.38000000    37.10000000
   N     35.35000000    39.31000000    32.93000000
   C     35.03000000    38.12000000    32.17000000
   C     33.58000000    37.67000000    32.32000000
   O     33.17000000    36.62000000    31.83000000
   H     34.63000000    40.02000000    32.91000000
   H     35.62000000    37.24000000    32.43000000
   H     35.17000000    38.25000000    31.10000000
   N     32.74000000    38.33000000    33.12000000
   C     31.47000000    37.76000000    33.51000000
   C     30.46000000    38.88000000    33.73000000
   O     30.85000000    39.97000000    34.14000000
   C     31.60000000    37.01000000    34.83000000
   C     32.76000000    36.04000000    34.75000000
   C     33.99000000    36.55000000    35.18000000
   C     32.59000000    34.74000000    34.25000000
   C     35.11000000    35.73000000    35.05000000
   C     33.73000000    33.92000000    34.21000000
   C     35.01000000    34.43000000    34.50000000
   O     36.07000000    33.59000000    34.36000000
   H     32.96000000    39.23000000    33.52000000
   H     31.04000000    37.07000000    32.79000000
   H     30.65000000    36.48000000    34.93000000
   H     31.76000000    37.68000000    35.67000000
   H     33.98000000    37.59000000    35.44000000
   H     31.62000000    34.39000000    33.91000000
   H     36.09000000    36.15000000    35.20000000
   H     33.56000000    32.96000000    33.75000000
   H     35.81000000    32.70000000    34.12000000
   N     29.20000000    38.58000000    33.39000000
   C     28.08000000    39.47000000    33.60000000
   C     27.11000000    39.03000000    34.68000000
   O     26.83000000    37.84000000    34.80000000
   C     27.32000000    39.66000000    32.29000000
   C     28.29000000    40.14000000    31.21000000
   C     26.25000000    40.75000000    32.39000000
   C     27.86000000    39.80000000    29.79000000
   H     29.03000000    37.66000000    33.02000000
   H     28.49000000    40.45000000    33.85000000
   H     26.80000000    38.74000000    32.03000000
   H     29.31000000    39.81000000    31.36000000
   H     28.31000000    41.23000000    31.24000000
   H     25.93000000    41.00000000    31.38000000
   H     25.35000000    40.52000000    32.97000000
   H     26.71000000    41.64000000    32.82000000
   H     27.86000000    38.72000000    29.61000000
   H     26.84000000    40.16000000    29.65000000
   H     28.55000000    40.33000000    29.14000000
   N     26.52000000    39.93000000    35.48000000
   C     25.43000000    39.70000000    36.42000000
   C     24.12000000    40.43000000    36.14000000
   O     24.03000000    41.29000000    35.27000000
   C     25.92000000    39.93000000    37.84000000
   O     25.72000000    41.22000000    38.39000000
   H     26.78000000    40.90000000    35.42000000
   H     25.29000000    38.62000000    36.48000000
   H     26.98000000    39.67000000    37.83000000
   H     25.33000000    39.26000000    38.47000000
   H     26.54000000    41.72000000    38.48000000
   N     23.08000000    40.19000000    36.93000000
   C     21.74000000    40.76000000    36.89000000
   C     21.70000000    42.27000000    37.06000000
   O     20.83000000    42.91000000    36.47000000
   C     20.88000000    39.99000000    37.89000000
   H     23.18000000    39.49000000    37.65000000
   H     21.30000000    40.50000000    35.92000000
   H     21.42000000    39.82000000    38.82000000
   H     19.92000000    40.47000000    38.07000000
   H     20.68000000    38.99000000    37.53000000
   N     22.74000000    42.88000000    37.63000000
   C     22.96000000    44.32000000    37.70000000
   C     23.62000000    44.94000000    36.48000000
   O     23.41000000    46.06000000    36.01000000
   C     23.59000000    44.72000000    39.02000000
   H     23.43000000    42.29000000    38.07000000
   H     22.02000000    44.86000000    37.71000000
   H     23.71000000    45.81000000    39.05000000
   H     22.95000000    44.34000000    39.82000000
   H     24.59000000    44.28000000    39.10000000
   N     24.55000000    44.16000000    35.91000000
   C     25.33000000    44.56000000    34.76000000
   C     24.52000000    44.60000000    33.47000000
   O     24.41000000    45.64000000    32.82000000
   C     26.55000000    43.64000000    34.64000000
   C     27.48000000    43.86000000    35.83000000
   C     28.73000000    43.03000000    35.60000000
   O     29.70000000    43.44000000    34.93000000
   O     28.89000000    41.98000000    36.26000000
   H     24.70000000    43.26000000    36.34000000
   H     25.70000000    45.58000000    34.87000000
   H     27.13000000    43.71000000    33.72000000
   H     26.19000000    42.61000000    34.71000000
   H     27.06000000    43.57000000    36.80000000
   H     27.61000000    44.94000000    35.81000000
   N     23.88000000    43.50000000    33.08000000
   C     22.73000000    43.46000000    32.21000000
   H     21.93800000    44.08200000    32.62700000
   H     23.00600000    43.83600000    31.22500000
   H     22.37600000    42.43300000    32.12200000
   H     24.09000000    42.70000000    33.67000000
  Ca     31.80000000    42.32000000    35.77000000
   O     31.37000000    44.31000000    37.40000000
   H     30.48000000    44.50000000    37.72000000
   H     31.88000000    45.08000000    37.63000000
   O     31.23000000    40.11000000    37.14000000
   H     30.45000000    39.56000000    37.04000000
   H     31.61000000    39.84000000    37.97000000
   O     33.57000000    42.47000000    37.73000000
   H     33.80000000    42.25000000    38.63000000
   H     34.05000000    43.28000000    37.55000000

Ca 1.00



