%chk=loop2.cluster65.chk
%nprocshared=20
%mem=10GB
%nosave
#b3lyp/svp scf=(tight,noincore,xqc) Test 
#IOP(5/87=12) Density=Current Pop=(MK,readradii) iop(6/33=2) iop(6/42=6)

loop2.cluster65 

   -2  1 
   C     67.07000000   111.89000000    23.28000000
   C     66.84000000   113.18000000    24.05000000
   O     67.53000000   113.42000000    25.04000000
   H     68.07600000   111.52100000    23.48200000
   H     66.34000000   111.14400000    23.59400000
   H     66.96100000   112.07900000    22.21200000
   N     65.83000000   113.96000000    23.66000000
   C     65.30000000   115.07000000    24.41000000
   C     63.78000000   114.95000000    24.52000000
   O     63.26000000   114.92000000    25.63000000
   C     65.77000000   116.42000000    23.88000000
   C     65.13000000   117.52000000    24.73000000
   O     65.22000000   117.43000000    25.97000000
   O     64.52000000   118.43000000    24.13000000
   H     65.37000000   113.61000000    22.83000000
   H     65.47000000   114.88000000    25.47000000
   H     65.64000000   116.53000000    22.81000000
   H     66.85000000   116.43000000    24.05000000
   N     63.10000000   115.00000000    23.37000000
   C     61.67000000   114.88000000    23.25000000
   C     60.93000000   113.84000000    24.08000000
   O     59.85000000   114.09000000    24.62000000
   C     61.11000000   116.29000000    23.45000000
   H     63.71000000   115.07000000    22.56000000
   H     61.42000000   114.58000000    22.23000000
   H     61.36000000   116.60000000    24.46000000
   H     61.74000000   116.85000000    22.77000000
   H     60.06000000   116.32000000    23.16000000
   N     61.52000000   112.67000000    24.30000000
   C     61.10000000   111.66000000    25.24000000
   C     60.83000000   111.92000000    26.72000000
   O     60.04000000   111.23000000    27.36000000
   C     60.11000000   110.63000000    24.69000000
   C     60.41000000   110.20000000    23.26000000
   O     59.70000000   110.53000000    22.29000000
   O     61.43000000   109.50000000    23.09000000
   H     62.37000000   112.44000000    23.79000000
   H     62.04000000   111.11000000    25.36000000
   H     59.05000000   110.89000000    24.74000000
   H     60.20000000   109.72000000    25.29000000
   N     61.41000000   112.97000000    27.31000000
   C     61.37000000   113.27000000    28.73000000
   C     61.76000000   112.12000000    29.63000000
   O     62.72000000   111.39000000    29.37000000
   H     62.15000000   113.45000000    26.83000000
   H     60.43000000   113.71000000    29.08000000
   H     62.12000000   114.04000000    28.92000000
   N     61.16000000   112.05000000    30.82000000
   C     61.45000000   111.01000000    31.78000000
   C     62.84000000   110.95000000    32.41000000
   O     63.25000000   110.06000000    33.16000000
   C     60.87000000   109.68000000    31.32000000
   C     59.35000000   109.62000000    31.26000000
   N     58.81000000   109.86000000    30.06000000
   O     58.73000000   109.45000000    32.31000000
   H     60.49000000   112.77000000    31.04000000
   H     60.80000000   111.28000000    32.61000000
   H     61.23000000   108.86000000    31.95000000
   H     61.18000000   109.43000000    30.31000000
   H     59.49000000   109.90000000    29.31000000
   H     57.81000000   109.77000000    29.98000000
   N     63.61000000   111.98000000    32.07000000
   C     65.01000000   112.03000000    32.42000000
   C     66.07000000   111.70000000    31.38000000
   O     67.25000000   111.82000000    31.70000000
   H     63.21000000   112.71000000    31.49000000
   H     65.20000000   111.42000000    33.31000000
   H     65.21000000   113.06000000    32.73000000
   N     65.74000000   111.40000000    30.12000000
   C     66.70000000   111.09000000    29.08000000
   C     66.64000000   109.63000000    28.65000000
   O     65.56000000   109.04000000    28.66000000
   C     66.56000000   112.04000000    27.89000000
   C     65.32000000   111.97000000    27.02000000
   O     66.73000000   113.35000000    28.40000000
   H     64.76000000   111.48000000    29.87000000
   H     67.71000000   111.21000000    29.46000000
   H     67.44000000   111.82000000    27.29000000
   H     67.29000000   113.82000000    27.79000000
   H     65.50000000   112.61000000    26.15000000
   H     65.10000000   111.03000000    26.51000000
   H     64.42000000   112.29000000    27.54000000
   N     67.77000000   109.08000000    28.21000000
   C     67.80000000   107.70000000    27.79000000
   C     67.00000000   107.31000000    26.56000000
   O     66.85000000   108.16000000    25.68000000
   C     69.26000000   107.29000000    27.62000000
   C     69.95000000   108.01000000    26.46000000
   C     70.01000000   107.45000000    28.94000000
   C     71.41000000   107.65000000    26.23000000
   H     68.60000000   109.65000000    28.36000000
   H     67.35000000   107.18000000    28.64000000
   H     69.28000000   106.24000000    27.31000000
   H     69.97000000   109.10000000    26.57000000
   H     69.40000000   107.87000000    25.53000000
   H     70.35000000   108.48000000    29.00000000
   H     69.32000000   107.27000000    29.76000000
   H     70.84000000   106.74000000    29.02000000
   H     71.79000000   108.03000000    25.28000000
   H     72.02000000   108.07000000    27.03000000
   H     71.57000000   106.57000000    26.17000000
   N     66.46000000   106.09000000    26.57000000
   C     65.73000000   105.50000000    25.47000000
   C     64.66000000   104.59000000    26.06000000
   O     64.96000000   103.47000000    26.47000000
   C     66.68000000   104.75000000    24.54000000
   C     66.04000000   104.29000000    23.24000000
   O     64.98000000   104.81000000    22.82000000
   O     66.61000000   103.33000000    22.68000000
   H     66.60000000   105.46000000    27.35000000
   H     65.21000000   106.26000000    24.89000000
   H     67.09000000   103.92000000    25.10000000
   H     67.51000000   105.43000000    24.32000000
   N     63.42000000   105.08000000    26.20000000
   C     62.39000000   104.35000000    26.89000000
   C     61.72000000   105.24000000    27.93000000
   O     60.64000000   105.75000000    27.64000000
   C     61.54000000   103.61000000    25.86000000
   C     60.88000000   102.39000000    26.45000000
   C     59.48000000   102.41000000    26.54000000
   C     61.61000000   101.24000000    26.78000000
   C     58.89000000   101.23000000    27.00000000
   C     60.96000000   100.05000000    27.13000000
   C     59.56000000   100.03000000    27.22000000
   H     63.05000000   105.86000000    25.67000000
   H     62.94000000   103.63000000    27.50000000
   H     62.17000000   103.20000000    25.07000000
   H     60.81000000   104.27000000    25.39000000
   H     58.92000000   103.30000000    26.28000000
   H     62.68000000   101.30000000    26.62000000
   H     57.81000000   101.16000000    27.02000000
   H     61.58000000    99.20000000    27.37000000
   H     59.07000000    99.14000000    27.59000000
   N     62.41000000   105.53000000    29.04000000
   C     63.71000000   105.07000000    29.49000000
   C     63.65000000   103.63000000    29.99000000
   O     62.71000000   103.12000000    30.60000000
   C     64.19000000   106.08000000    30.52000000
   C     63.28000000   107.30000000    30.44000000
   C     62.03000000   106.57000000    29.97000000
   H     64.41000000   105.08000000    28.66000000
   H     64.16000000   105.66000000    31.53000000
   H     65.19000000   106.43000000    30.25000000
   H     63.21000000   107.90000000    31.34000000
   H     63.49000000   107.98000000    29.61000000
   H     61.56000000   105.96000000    30.76000000
   H     61.37000000   107.28000000    29.48000000
   N     64.80000000   102.98000000    29.77000000
   C     65.16000000   101.66000000    30.25000000
   C     66.67000000   101.47000000    30.16000000
   O     67.33000000   101.67000000    29.14000000
   C     64.36000000   100.57000000    29.55000000
   C     63.93000000    99.35000000    30.36000000
   C     65.20000000    98.63000000    30.81000000
   O     65.87000000    97.97000000    29.99000000
   O     65.53000000    98.70000000    32.01000000
   H     65.50000000   103.45000000    29.23000000
   H     64.88000000   101.63000000    31.30000000
   H     64.90000000   100.26000000    28.66000000
   H     63.44000000   100.98000000    29.13000000
   H     63.40000000    98.68000000    29.68000000
   H     63.31000000    99.49000000    31.25000000
   N     67.28000000   101.08000000    31.28000000
   C     68.71000000   100.91000000    31.43000000
   H     69.19200000   101.88800000    31.44400000
   H     68.91900000   100.38900000    32.36500000
   H     69.09700000   100.32700000    30.59400000
   H     66.79000000   101.00000000    32.16000000
  Ca     64.26000000   106.75900000    21.09000000
   O     65.03000000   108.24900000    23.50000000
   H     65.76000000   108.50900000    24.06000000
   H     64.25000000   108.38900000    24.05000000
   O     62.25000000   108.30900000    20.61000000
   H     61.79000000   108.76900000    19.91000000
   H     62.00000000   108.76900000    21.41000000
   O     64.67000000   105.00900000    19.05000000
   H     64.26000000   104.22900000    18.67000000
   H     65.46000000   105.12900000    18.53000000
   O     62.41000000   106.39900000    23.10000000
   H     62.54000000   107.19900000    23.61000000
   H     61.46000000   106.35900000    22.96000000
   O     66.95000000   106.17900000    20.80000000
   H     67.18000000   105.46900000    21.39000000
   H     67.57000000   106.10900000    20.07000000
   O     61.89000000   105.41900000    20.43000000
   H     61.03000000   105.80900000    20.59000000
   H     61.72000000   104.71900000    19.80000000

Ca 1.00



