%chk=loop1.cluster9.chk
%nprocshared=20
%mem=10GB
%nosave
#b3lyp/svp scf=(tight,noincore,xqc) Test 
#IOP(5/87=12) Density=Current Pop=(MK,readradii) iop(6/33=2) iop(6/42=6)

loop1.cluster9 

   0  1 
   C     59.17000000    40.65000000    29.66000000
   C     60.16000000    39.68000000    29.03000000
   O     59.96000000    38.47000000    29.07000000
   H     58.23600000    40.12900000    29.87100000
   H     59.58500000    41.04100000    30.58900000
   H     58.97900000    41.47300000    28.97200000
   N     61.25000000    40.20000000    28.46000000
   C     62.25000000    39.43000000    27.73000000
   C     63.25000000    38.82000000    28.70000000
   O     64.41000000    39.22000000    28.68000000
   C     62.91000000    40.34000000    26.70000000
   C     63.94000000    39.64000000    25.83000000
   O     64.83000000    40.32000000    25.28000000
   O     63.88000000    38.41000000    25.62000000
   H     61.30000000    41.20000000    28.44000000
   H     61.65000000    38.68000000    27.21000000
   H     63.32000000    41.18000000    27.25000000
   H     62.21000000    40.80000000    26.00000000
   N     62.76000000    37.96000000    29.60000000
   C     63.56000000    37.46000000    30.70000000
   C     64.94000000    36.95000000    30.31000000
   O     65.87000000    37.12000000    31.09000000
   C     62.76000000    36.38000000    31.42000000
   C     61.65000000    36.99000000    32.26000000
   C     61.03000000    35.94000000    33.18000000
   C     59.81000000    36.56000000    33.86000000
   N     59.45000000    35.87000000    35.11000000
   H     61.78000000    37.77000000    29.50000000
   H     63.76000000    38.30000000    31.37000000
   H     63.44000000    35.87000000    32.11000000
   H     62.45000000    35.65000000    30.67000000
   H     60.88000000    37.38000000    31.60000000
   H     62.10000000    37.80000000    32.82000000
   H     61.73000000    35.66000000    33.97000000
   H     60.80000000    35.04000000    32.62000000
   H     59.02000000    36.52000000    33.11000000
   H     60.01000000    37.62000000    34.02000000
   H     58.44000000    35.96000000    35.13000000
   H     59.66000000    34.90000000    34.96000000
   H     59.89000000    36.19000000    35.96000000
   N     65.05000000    36.22000000    29.20000000
   C     66.26000000    35.58000000    28.71000000
   C     67.05000000    36.41000000    27.71000000
   O     68.08000000    35.94000000    27.23000000
   C     66.09000000    34.19000000    28.10000000
   C     65.02000000    34.18000000    27.01000000
   O     64.32000000    33.15000000    26.89000000
   O     64.78000000    35.18000000    26.30000000
   H     64.31000000    36.40000000    28.54000000
   H     66.99000000    35.43000000    29.50000000
   H     65.79000000    33.59000000    28.95000000
   H     67.00000000    33.74000000    27.71000000
   N     66.59000000    37.63000000    27.42000000
   C     67.48000000    38.68000000    26.94000000
   C     68.00000000    38.33000000    25.56000000
   O     69.16000000    37.93000000    25.44000000
   H     65.71000000    37.91000000    27.83000000
   H     68.25000000    38.75000000    27.71000000
   H     66.82000000    39.55000000    26.90000000
   N     67.26000000    38.61000000    24.49000000
   C     67.68000000    38.53000000    23.10000000
   C     67.34000000    39.79000000    22.31000000
   O     68.04000000    40.13000000    21.37000000
   C     67.17000000    37.26000000    22.41000000
   C     65.69000000    36.97000000    22.60000000
   O     64.88000000    37.91000000    22.80000000
   O     65.33000000    35.78000000    22.66000000
   H     66.35000000    39.00000000    24.72000000
   H     68.76000000    38.45000000    23.08000000
   H     67.65000000    36.34000000    22.75000000
   H     67.32000000    37.34000000    21.34000000
   N     66.29000000    40.49000000    22.72000000
   C     65.79000000    41.63000000    21.98000000
   C     64.60000000    41.26000000    21.10000000
   O     64.27000000    41.95000000    20.15000000
   H     65.84000000    40.22000000    23.59000000
   H     66.52000000    42.03000000    21.28000000
   H     65.52000000    42.48000000    22.62000000
   N     63.96000000    40.12000000    21.38000000
   C     62.65000000    39.67000000    20.96000000
   C     61.76000000    39.16000000    22.08000000
   O     62.19000000    38.36000000    22.91000000
   C     62.71000000    38.54000000    19.94000000
   C     63.22000000    39.04000000    18.59000000
   O     63.48000000    37.45000000    20.39000000
   H     64.43000000    39.64000000    22.14000000
   H     62.03000000    40.49000000    20.61000000
   H     61.71000000    38.18000000    19.71000000
   H     64.14000000    37.73000000    21.03000000
   H     62.67000000    39.93000000    18.29000000
   H     64.29000000    39.27000000    18.65000000
   H     62.99000000    38.30000000    17.82000000
   N     60.46000000    39.47000000    22.00000000
   C     59.44000000    38.92000000    22.87000000
   C     58.49000000    37.98000000    22.15000000
   O     57.89000000    38.32000000    21.13000000
   C     58.57000000    40.07000000    23.37000000
   C     59.32000000    40.87000000    24.44000000
   C     57.17000000    39.75000000    23.89000000
   C     58.80000000    42.26000000    24.81000000
   H     60.26000000    40.21000000    21.33000000
   H     59.90000000    38.52000000    23.77000000
   H     58.51000000    40.71000000    22.49000000
   H     60.38000000    40.98000000    24.22000000
   H     59.28000000    40.24000000    25.32000000
   H     56.56000000    39.27000000    23.13000000
   H     57.27000000    39.11000000    24.76000000
   H     56.67000000    40.68000000    24.16000000
   H     58.82000000    42.89000000    23.92000000
   H     57.77000000    42.30000000    25.15000000
   H     59.48000000    42.70000000    25.55000000
   N     58.24000000    36.83000000    22.78000000
   C     57.34000000    35.82000000    22.26000000
   C     56.00000000    35.96000000    22.97000000
   O     55.79000000    36.59000000    24.00000000
   C     57.94000000    34.43000000    22.47000000
   C     59.10000000    34.05000000    21.56000000
   O     58.33000000    34.20000000    23.81000000
   H     58.79000000    36.55000000    23.57000000
   H     57.24000000    35.94000000    21.19000000
   H     57.23000000    33.63000000    22.27000000
   H     59.04000000    34.81000000    24.00000000
   H     59.35000000    32.99000000    21.62000000
   H     58.93000000    34.29000000    20.51000000
   H     59.93000000    34.75000000    21.68000000
   N     55.06000000    35.17000000    22.46000000
   C     53.77000000    34.92000000    23.08000000
   C     53.99000000    34.26000000    24.43000000
   O     53.33000000    34.67000000    25.39000000
   C     52.96000000    33.96000000    22.21000000
   C     52.50000000    34.61000000    20.91000000
   O     53.64000000    32.81000000    21.76000000
   H     55.28000000    34.59000000    21.66000000
   H     53.24000000    35.85000000    23.26000000
   H     52.03000000    33.71000000    22.72000000
   H     54.05000000    33.07000000    20.93000000
   H     51.83000000    35.42000000    21.19000000
   H     53.30000000    35.14000000    20.40000000
   H     52.02000000    33.85000000    20.29000000
   N     55.00000000    33.39000000    24.57000000
   C     55.22000000    32.72000000    25.83000000
   C     55.65000000    33.66000000    26.95000000
   O     55.18000000    33.54000000    28.08000000
   C     56.29000000    31.63000000    25.73000000
   C     55.73000000    30.46000000    24.92000000
   C     56.66000000    29.29000000    25.18000000
   C     56.44000000    28.06000000    24.30000000
   N     56.81000000    28.37000000    22.91000000
   H     55.47000000    32.98000000    23.77000000
   H     54.26000000    32.30000000    26.14000000
   H     56.51000000    31.34000000    26.76000000
   H     57.17000000    32.09000000    25.29000000
   H     55.59000000    30.68000000    23.86000000
   H     54.80000000    30.26000000    25.46000000
   H     56.47000000    29.08000000    26.23000000
   H     57.68000000    29.66000000    25.11000000
   H     55.38000000    27.81000000    24.24000000
   H     57.02000000    27.20000000    24.62000000
   H     57.13000000    27.58000000    22.38000000
   H     55.97000000    28.63000000    22.40000000
   H     57.46000000    29.15000000    22.94000000
   N     56.40000000    34.72000000    26.63000000
   C     56.90000000    35.80000000    27.45000000
   C     55.88000000    36.80000000    27.98000000
   O     55.76000000    37.04000000    29.18000000
   C     58.05000000    36.47000000    26.70000000
   C     59.26000000    35.56000000    26.56000000
   C     60.42000000    36.06000000    25.71000000
   O     60.34000000    36.27000000    24.48000000
   O     61.52000000    36.17000000    26.29000000
   H     56.66000000    34.75000000    25.65000000
   H     57.35000000    35.41000000    28.37000000
   H     58.39000000    37.40000000    27.16000000
   H     57.75000000    36.77000000    25.70000000
   H     59.03000000    34.54000000    26.22000000
   H     59.64000000    35.53000000    27.58000000
   N     54.99000000    37.28000000    27.11000000
   C     53.80000000    37.96000000    27.57000000
   H     52.97800000    37.24700000    27.63700000
   H     53.98500000    38.39300000    28.55300000
   H     53.53800000    38.75100000    26.86700000
   H     54.92000000    36.98000000    26.15000000
  Ca     63.23000000    36.40000000    24.32000000
   O     62.44000000    35.30000000    21.98000000
   H     62.52000000    35.90000000    21.24000000
   H     62.49000000    34.43000000    21.60000000
   O     62.81000000    33.81000000    24.82000000
   H     62.63000000    33.04000000    24.28000000
   H     63.54000000    33.54000000    25.38000000

Ca 1.00



