%chk=loop3.cluster164.chk
%nprocshared=20
%mem=10GB
%nosave
#b3lyp/svp scf=(tight,noincore,xqc) Test 
#IOP(5/87=12) Density=Current Pop=(MK,readradii) iop(6/33=2) iop(6/42=6)

loop3.cluster164 

   0  1 
   C     -4.02000000   -15.93000000    30.82000000
   C     -4.92000000   -17.08000000    30.41000000
   O     -5.99000000   -17.26000000    30.98000000
   H     -3.10400000   -15.95800000    30.23000000
   H     -4.53500000   -14.98500000    30.64600000
   H     -3.77300000   -16.02000000    31.87800000
   N     -4.51000000   -17.88000000    29.42000000
   C     -5.33000000   -18.98000000    28.96000000
   C     -4.63000000   -20.28000000    28.61000000
   O     -3.52000000   -20.30000000    28.07000000
   C     -6.11000000   -18.51000000    27.73000000
   C     -7.17000000   -19.55000000    27.40000000
   O     -8.25000000   -19.46000000    28.03000000
   O     -6.97000000   -20.51000000    26.63000000
   H     -3.59000000   -17.71000000    29.03000000
   H     -6.10000000   -19.18000000    29.70000000
   H     -5.41000000   -18.32000000    26.92000000
   H     -6.64000000   -17.59000000    28.01000000
   N     -5.19000000   -21.42000000    29.02000000
   C     -4.52000000   -22.69000000    28.85000000
   C     -4.31000000   -23.19000000    27.43000000
   O     -3.26000000   -23.75000000    27.10000000
   C     -5.18000000   -23.75000000    29.72000000
   C     -6.60000000   -24.09000000    29.28000000
   C     -7.24000000   -25.25000000    30.03000000
   C     -7.19000000   -25.06000000    31.55000000
   N     -8.12000000   -23.95000000    31.76000000
   H     -6.09000000   -21.32000000    29.47000000
   H     -3.49000000   -22.61000000    29.20000000
   H     -5.13000000   -23.40000000    30.75000000
   H     -4.45000000   -24.56000000    29.80000000
   H     -6.60000000   -24.42000000    28.24000000
   H     -7.20000000   -23.19000000    29.38000000
   H     -6.70000000   -26.16000000    29.77000000
   H     -8.26000000   -25.35000000    29.66000000
   H     -6.19000000   -24.75000000    31.85000000
   H     -7.55000000   -25.91000000    32.13000000
   H     -7.84000000   -23.20000000    31.14000000
   H     -9.05000000   -24.24000000    31.50000000
   H     -8.22000000   -23.72000000    32.74000000
   N     -5.24000000   -22.91000000    26.51000000
   C     -5.13000000   -23.24000000    25.11000000
   C     -5.02000000   -22.07000000    24.14000000
   O     -4.82000000   -22.38000000    22.96000000
   C     -6.35000000   -24.09000000    24.76000000
   C     -7.69000000   -23.76000000    25.39000000
   O     -8.13000000   -22.65000000    25.00000000
   O     -8.28000000   -24.54000000    26.18000000
   H     -6.07000000   -22.36000000    26.69000000
   H     -4.20000000   -23.79000000    24.96000000
   H     -6.12000000   -25.10000000    25.08000000
   H     -6.51000000   -24.17000000    23.69000000
   N     -5.06000000   -20.79000000    24.53000000
   C     -4.84000000   -19.59000000    23.74000000
   C     -5.94000000   -19.10000000    22.81000000
   O     -6.08000000   -17.91000000    22.53000000
   H     -5.49000000   -20.65000000    25.43000000
   H     -3.84000000   -19.61000000    23.32000000
   H     -4.91000000   -18.79000000    24.47000000
   N     -6.74000000   -20.05000000    22.33000000
   C     -8.02000000   -19.99000000    21.66000000
   C     -8.95000000   -19.06000000    22.42000000
   O     -9.19000000   -19.33000000    23.60000000
   C     -8.62000000   -21.39000000    21.63000000
   C    -10.07000000   -21.50000000    21.17000000
   N    -10.76000000   -22.64000000    21.33000000
   O    -10.72000000   -20.55000000    20.76000000
   H     -6.57000000   -20.95000000    22.76000000
   H     -7.90000000   -19.60000000    20.65000000
   H     -8.62000000   -21.71000000    22.67000000
   H     -7.94000000   -22.05000000    21.09000000
   H    -10.31000000   -23.33000000    21.91000000
   H    -11.73000000   -22.71000000    21.08000000
   N     -9.43000000   -17.95000000    21.85000000
   C    -10.24000000   -16.95000000    22.50000000
   C    -11.61000000   -17.30000000    23.05000000
   O    -12.07000000   -16.48000000    23.84000000
   H     -9.06000000   -17.76000000    20.93000000
   H    -10.54000000   -16.24000000    21.73000000
   H     -9.68000000   -16.40000000    23.27000000
   N    -12.16000000   -18.42000000    22.57000000
   C    -13.38000000   -19.02000000    23.05000000
   C    -13.36000000   -19.32000000    24.54000000
   O    -12.33000000   -19.79000000    25.02000000
   C    -13.60000000   -20.24000000    22.16000000
   C    -14.85000000   -21.01000000    22.51000000
   C    -14.86000000   -22.28000000    23.11000000
   C    -16.04000000   -20.39000000    22.12000000
   C    -16.07000000   -22.94000000    23.37000000
   C    -17.25000000   -21.03000000    22.44000000
   C    -17.28000000   -22.30000000    23.04000000
   O    -18.48000000   -22.90000000    23.27000000
   H    -11.50000000   -18.97000000    22.03000000
   H    -14.21000000   -18.33000000    22.88000000
   H    -12.76000000   -20.94000000    22.26000000
   H    -13.58000000   -19.95000000    21.11000000
   H    -13.95000000   -22.73000000    23.46000000
   H    -16.07000000   -19.44000000    21.62000000
   H    -16.14000000   -23.88000000    23.90000000
   H    -18.21000000   -20.57000000    22.22000000
   H    -19.24000000   -22.35000000    23.07000000
   N    -14.47000000   -19.17000000    25.27000000
   C    -14.75000000   -19.46000000    26.66000000
   C    -14.75000000   -20.94000000    27.00000000
   O    -13.72000000   -21.62000000    27.06000000
   C    -13.92000000   -18.60000000    27.61000000
   C    -14.20000000   -18.88000000    29.08000000
   C    -14.02000000   -17.10000000    27.33000000
   C    -15.63000000   -18.59000000    29.53000000
   H    -15.23000000   -18.84000000    24.70000000
   H    -15.79000000   -19.20000000    26.85000000
   H    -12.87000000   -18.87000000    27.49000000
   H    -13.47000000   -18.27000000    29.62000000
   H    -14.06000000   -19.95000000    29.24000000
   H    -13.47000000   -16.52000000    28.08000000
   H    -13.59000000   -16.83000000    26.37000000
   H    -15.04000000   -16.74000000    27.26000000
   H    -16.31000000   -19.35000000    29.14000000
   H    -15.67000000   -18.81000000    30.59000000
   H    -15.92000000   -17.56000000    29.33000000
   N    -15.92000000   -21.47000000    27.37000000
   C    -16.12000000   -22.76000000    27.99000000
   C    -17.53000000   -23.34000000    27.96000000
   O    -17.71000000   -24.54000000    28.19000000
   C    -15.63000000   -22.78000000    29.43000000
   O    -16.36000000   -21.84000000    30.20000000
   H    -16.74000000   -20.90000000    27.21000000
   H    -15.58000000   -23.52000000    27.42000000
   H    -14.57000000   -22.58000000    29.54000000
   H    -15.74000000   -23.76000000    29.89000000
   H    -15.85000000   -21.63000000    30.99000000
   N    -18.62000000   -22.57000000    27.90000000
   C    -20.01000000   -22.97000000    27.84000000
   C    -20.54000000   -23.94000000    28.88000000
   O    -21.08000000   -24.99000000    28.54000000
   C    -20.27000000   -23.42000000    26.41000000
   H    -18.49000000   -21.57000000    27.85000000
   H    -20.54000000   -22.02000000    27.96000000
   H    -20.13000000   -24.48000000    26.21000000
   H    -21.28000000   -23.28000000    26.01000000
   H    -19.64000000   -22.79000000    25.78000000
   N    -20.35000000   -23.76000000    30.19000000
   C    -19.54000000   -22.82000000    30.94000000
   C    -20.41000000   -21.93000000    31.81000000
   O    -21.37000000   -22.46000000    32.38000000
   C    -18.71000000   -23.69000000    31.88000000
   H    -20.89000000   -24.45000000    30.70000000
   H    -18.88000000   -22.32000000    30.24000000
   H    -19.35000000   -24.23000000    32.58000000
   H    -18.18000000   -24.42000000    31.27000000
   H    -17.93000000   -23.13000000    32.40000000
   N    -20.16000000   -20.64000000    32.04000000
   C    -19.14000000   -19.75000000    31.53000000
   C    -19.57000000   -18.30000000    31.42000000
   O    -18.86000000   -17.49000000    30.83000000
   C    -17.93000000   -19.91000000    32.45000000
   C    -18.11000000   -19.94000000    33.97000000
   C    -16.76000000   -20.05000000    34.65000000
   O    -15.99000000   -20.99000000    34.34000000
   O    -16.46000000   -19.16000000    35.48000000
   H    -20.78000000   -20.29000000    32.76000000
   H    -18.98000000   -20.02000000    30.48000000
   H    -17.21000000   -19.17000000    32.11000000
   H    -17.48000000   -20.85000000    32.15000000
   H    -18.60000000   -20.89000000    34.19000000
   H    -18.68000000   -19.04000000    34.22000000
   N    -20.62000000   -17.86000000    32.11000000
   C    -20.96000000   -16.45000000    32.05000000
   H    -21.90600000   -16.28300000    32.56500000
   H    -20.17600000   -15.86600000    32.53200000
   H    -21.05500000   -16.14300000    31.00900000
   H    -21.28000000   -18.49000000    32.55000000
  Ca     -9.70500000   -20.61500000    26.03000000
   O    -11.53500000   -22.67500000    25.21000000
   H    -12.30500000   -22.31500000    25.64000000
   H    -11.87500000   -23.22500000    24.51000000
   O     -9.34500000   -22.56500000    27.70000000
   H     -9.70500000   -22.60500000    28.59000000
   H     -9.20500000   -23.47500000    27.45000000
   O    -11.47500000   -20.75500000    28.71000000
   H    -12.41500000   -20.83500000    28.56000000
   H    -11.35500000   -20.97500000    29.63000000
   O    -10.24500000   -18.12500000    26.65000000
   H     -9.80500000   -17.28500000    26.58000000
   H    -10.63500000   -18.12500000    27.53000000

Ca 1.00



