%chk=loop1.cluster37.chk
%nprocshared=20
%mem=10GB
%nosave
#b3lyp/svp scf=(tight,noincore,xqc) Test 
#IOP(5/87=12) Density=Current Pop=(MK,readradii) iop(6/33=2) iop(6/42=6)

loop1.cluster37 

   0  1 
   C     73.81000000    67.47000000    42.18000000
   C     72.75000000    67.07000000    41.17000000
   O     71.59000000    66.75000000    41.41000000
   H     74.66300000    67.90400000    41.65800000
   H     73.39600000    68.20400000    42.87100000
   H     74.13400000    66.59000000    42.73500000
   N     73.30000000    67.03000000    39.95000000
   C     72.65000000    66.73000000    38.69000000
   C     71.46000000    67.57000000    38.27000000
   O     70.52000000    67.03000000    37.68000000
   C     72.38000000    65.24000000    38.51000000
   C     72.25000000    64.62000000    37.13000000
   O     71.98000000    63.40000000    37.06000000
   O     72.44000000    65.26000000    36.07000000
   H     74.27000000    67.29000000    39.98000000
   H     73.44000000    67.05000000    38.00000000
   H     71.55000000    64.96000000    39.16000000
   H     73.24000000    64.81000000    39.02000000
   N     71.46000000    68.83000000    38.70000000
   C     70.30000000    69.70000000    38.73000000
   C     70.54000000    70.94000000    37.88000000
   O     69.61000000    71.43000000    37.25000000
   C     70.13000000    70.07000000    40.20000000
   C     69.02000000    69.34000000    40.95000000
   C     68.44000000    69.97000000    42.21000000
   C     67.19000000    69.17000000    42.55000000
   N     66.46000000    69.74000000    43.70000000
   H     72.31000000    69.11000000    39.17000000
   H     69.41000000    69.25000000    38.29000000
   H     69.91000000    71.14000000    40.25000000
   H     71.10000000    69.88000000    40.66000000
   H     69.35000000    68.31000000    41.11000000
   H     68.21000000    69.48000000    40.24000000
   H     68.22000000    71.02000000    42.01000000
   H     69.20000000    69.95000000    42.99000000
   H     67.46000000    68.12000000    42.69000000
   H     66.46000000    69.21000000    41.75000000
   H     65.52000000    69.39000000    43.77000000
   H     66.81000000    69.46000000    44.60000000
   H     66.40000000    70.74000000    43.56000000
   N     71.77000000    71.47000000    37.85000000
   C     72.12000000    72.68000000    37.14000000
   C     72.56000000    72.54000000    35.69000000
   O     72.59000000    73.48000000    34.90000000
   C     73.22000000    73.40000000    37.91000000
   C     73.38000000    74.85000000    37.48000000
   O     72.42000000    75.49000000    37.01000000
   O     74.47000000    75.40000000    37.74000000
   H     72.52000000    71.08000000    38.40000000
   H     71.20000000    73.27000000    37.07000000
   H     74.16000000    72.87000000    37.76000000
   H     73.08000000    73.36000000    38.99000000
   N     72.96000000    71.37000000    35.19000000
   C     73.42000000    70.94000000    33.88000000
   C     74.89000000    71.22000000    33.63000000
   O     75.76000000    70.39000000    33.38000000
   H     73.10000000    70.69000000    35.93000000
   H     72.84000000    71.47000000    33.12000000
   H     73.21000000    69.87000000    33.91000000
   N     75.19000000    72.52000000    33.78000000
   C     76.44000000    73.20000000    33.50000000
   C     76.88000000    74.05000000    34.68000000
   O     77.19000000    75.24000000    34.67000000
   C     76.41000000    73.83000000    32.11000000
   C     75.26000000    74.78000000    31.80000000
   O     74.94000000    74.98000000    30.61000000
   O     74.52000000    75.20000000    32.72000000
   H     74.46000000    73.16000000    34.07000000
   H     77.26000000    72.48000000    33.47000000
   H     76.28000000    72.99000000    31.43000000
   H     77.36000000    74.36000000    31.97000000
   N     76.96000000    73.41000000    35.86000000
   C     77.42000000    73.98000000    37.11000000
   C     78.92000000    74.05000000    37.34000000
   O     79.56000000    73.07000000    37.73000000
   H     76.74000000    72.43000000    35.83000000
   H     77.00000000    73.36000000    37.90000000
   H     77.03000000    74.98000000    37.30000000
   N     79.51000000    75.24000000    37.43000000
   C     80.93000000    75.54000000    37.46000000
   C     81.57000000    75.31000000    36.10000000
   O     80.96000000    75.59000000    35.07000000
   C     81.16000000    76.98000000    37.92000000
   C     80.72000000    77.12000000    39.38000000
   O     82.53000000    77.29000000    37.88000000
   H     78.97000000    76.01000000    37.05000000
   H     81.36000000    74.90000000    38.23000000
   H     80.57000000    77.67000000    37.33000000
   H     82.94000000    76.72000000    38.54000000
   H     80.94000000    78.15000000    39.67000000
   H     79.65000000    76.89000000    39.34000000
   H     81.21000000    76.41000000    40.04000000
   N     82.83000000    74.87000000    36.11000000
   C     83.68000000    74.84000000    34.93000000
   C     83.24000000    73.85000000    33.87000000
   O     83.90000000    73.77000000    32.84000000
   C     85.13000000    74.64000000    35.35000000
   C     85.40000000    73.28000000    36.00000000
   C     85.58000000    75.74000000    36.31000000
   C     86.83000000    73.03000000    36.46000000
   H     83.25000000    74.56000000    36.98000000
   H     83.69000000    75.81000000    34.44000000
   H     85.77000000    74.69000000    34.47000000
   H     85.05000000    72.48000000    35.35000000
   H     84.68000000    73.12000000    36.81000000
   H     85.13000000    76.70000000    36.07000000
   H     85.32000000    75.45000000    37.33000000
   H     86.66000000    75.80000000    36.36000000
   H     87.14000000    73.78000000    37.20000000
   H     86.83000000    72.08000000    36.99000000
   H     87.50000000    72.93000000    35.61000000
   N     82.23000000    73.01000000    34.13000000
   C     82.11000000    71.77000000    33.39000000
   C     81.74000000    70.63000000    34.32000000
   O     80.95000000    70.76000000    35.26000000
   C     81.22000000    71.80000000    32.14000000
   C     79.81000000    72.28000000    32.47000000
   O     81.73000000    72.73000000    31.22000000
   H     81.65000000    73.22000000    34.93000000
   H     83.14000000    71.52000000    33.14000000
   H     81.15000000    70.81000000    31.69000000
   H     82.55000000    73.13000000    31.51000000
   H     79.33000000    71.42000000    32.93000000
   H     79.76000000    73.12000000    33.16000000
   H     79.34000000    72.43000000    31.50000000
   N     82.20000000    69.43000000    33.96000000
   C     81.83000000    68.13000000    34.47000000
   C     82.82000000    67.51000000    35.46000000
   O     82.56000000    66.62000000    36.27000000
   C     81.64000000    67.24000000    33.25000000
   C     81.11000000    65.83000000    33.47000000
   O     82.88000000    67.28000000    32.58000000
   H     82.75000000    69.45000000    33.11000000
   H     80.82000000    68.24000000    34.86000000
   H     80.92000000    67.75000000    32.61000000
   H     82.83000000    66.66000000    31.85000000
   H     80.26000000    65.95000000    34.14000000
   H     80.65000000    65.59000000    32.51000000
   H     81.81000000    65.13000000    33.92000000
   N     84.04000000    68.06000000    35.45000000
   C     85.20000000    67.51000000    36.10000000
   C     86.09000000    68.57000000    36.75000000
   O     85.87000000    69.76000000    36.51000000
   C     85.85000000    66.51000000    35.14000000
   C     86.27000000    67.06000000    33.78000000
   C     86.62000000    65.90000000    32.85000000
   C     87.59000000    66.39000000    31.78000000
   N     88.95000000    66.37000000    32.34000000
   H     84.23000000    68.83000000    34.83000000
   H     84.83000000    66.89000000    36.92000000
   H     85.14000000    65.71000000    34.94000000
   H     86.77000000    66.15000000    35.59000000
   H     87.05000000    67.80000000    33.96000000
   H     85.45000000    67.69000000    33.42000000
   H     85.74000000    65.47000000    32.37000000
   H     86.93000000    65.02000000    33.42000000
   H     87.27000000    67.38000000    31.45000000
   H     87.61000000    65.79000000    30.88000000
   H     89.63000000    66.80000000    31.74000000
   H     89.19000000    66.75000000    33.25000000
   H     89.20000000    65.39000000    32.34000000
   N     86.99000000    68.14000000    37.63000000
   C     88.04000000    69.02000000    38.10000000
   C     88.18000000    68.92000000    39.61000000
   O     89.14000000    68.35000000    40.13000000
   C     89.37000000    68.74000000    37.42000000
   C     89.37000000    69.33000000    36.01000000
   C     90.22000000    68.57000000    35.01000000
   O     90.03000000    67.35000000    34.79000000
   O     91.17000000    69.22000000    34.53000000
   H     86.99000000    67.16000000    37.88000000
   H     87.67000000    70.02000000    37.87000000
   H     89.70000000    67.70000000    37.52000000
   H     90.06000000    69.39000000    37.96000000
   H     89.66000000    70.37000000    36.15000000
   H     88.36000000    69.38000000    35.60000000
   N     87.24000000    69.33000000    40.47000000
   C     85.86000000    69.68000000    40.16000000
   H     85.25300000    69.59500000    41.06100000
   H     85.81900000    70.70400000    39.79000000
   H     85.47500000    69.00200000    39.39800000
   H     87.48000000    69.23000000    41.44000000
  Ca     72.35000000    75.93000000    34.04000000
   O     70.13000000    76.63000000    32.24000000
   H     69.95000000    77.50000000    31.90000000
   H     70.08000000    76.05000000    31.48000000
   O     74.49000000    76.97000000    35.21000000
   H     75.07000000    77.70000000    34.99000000
   H     74.82000000    76.64000000    36.05000000
   O     70.19000000    75.77000000    35.51000000
   H     69.24000000    75.73000000    35.47000000
   H     70.40000000    75.74000000    36.44000000
   O     71.27000000    73.84000000    32.40000000
   H     70.33000000    73.75000000    32.26000000
   H     71.68000000    73.26000000    31.75000000
   O     73.51000000    77.90000000    32.58000000
   H     73.82000000    78.70000000    33.01000000
   H     73.73000000    78.03000000    31.66000000
   O     71.50000000    78.33000000    34.60000000
   H     71.35000000    79.25000000    34.40000000
   H     70.84000000    78.12000000    35.26000000

Ca 1.00



