%chk=loop3.cluster102.chk
%nprocshared=20
%mem=10GB
%nosave
#b3lyp/svp scf=(tight,noincore,xqc) Test 
#IOP(5/87=12) Density=Current Pop=(MK,readradii) iop(6/33=2) iop(6/42=6)

loop3.cluster102 

   0  1 
   C     53.28000000    61.42000000    26.57000000
   C     52.56000000    62.76000000    26.56000000
   O     51.36000000    62.90000000    26.35000000
   H     54.23600000    61.52600000    27.08300000
   H     52.66900000    60.68200000    27.09000000
   H     53.45300000    61.09200000    25.54500000
   N     53.34000000    63.77000000    26.95000000
   C     52.95000000    65.11000000    27.36000000
   C     51.94000000    65.70000000    26.39000000
   O     52.32000000    66.52000000    25.55000000
   C     52.52000000    65.08000000    28.82000000
   C     53.52000000    64.55000000    29.84000000
   O     53.99000000    65.19000000    30.81000000
   O     53.88000000    63.36000000    29.73000000
   H     54.29000000    63.57000000    27.21000000
   H     53.76000000    65.82000000    27.17000000
   H     51.62000000    64.48000000    28.97000000
   H     52.29000000    66.09000000    29.15000000
   N     50.64000000    65.40000000    26.49000000
   C     49.46000000    66.02000000    25.94000000
   C     49.22000000    67.45000000    26.39000000
   O     48.56000000    68.17000000    25.64000000
   C     48.26000000    65.13000000    26.25000000
   C     48.02000000    64.99000000    27.75000000
   C     46.90000000    64.01000000    28.09000000
   C     46.60000000    63.89000000    29.58000000
   N     47.70000000    63.51000000    30.48000000
   H     50.53000000    64.46000000    26.84000000
   H     49.56000000    66.00000000    24.85000000
   H     48.41000000    64.10000000    25.94000000
   H     47.33000000    65.44000000    25.77000000
   H     47.69000000    65.94000000    28.16000000
   H     48.92000000    64.65000000    28.25000000
   H     47.08000000    63.05000000    27.62000000
   H     45.98000000    64.48000000    27.73000000
   H     45.77000000    63.18000000    29.60000000
   H     46.16000000    64.83000000    29.92000000
   H     48.24000000    62.73000000    30.12000000
   H     48.31000000    64.31000000    30.60000000
   H     47.38000000    63.27000000    31.41000000
   N     49.74000000    67.89000000    27.54000000
   C     49.88000000    69.24000000    28.04000000
   C     50.94000000    69.31000000    29.13000000
   O     51.50000000    68.25000000    29.38000000
   C     48.51000000    69.73000000    28.51000000
   C     47.79000000    68.88000000    29.55000000
   O     48.32000000    67.92000000    30.14000000
   O     46.65000000    69.25000000    29.89000000
   H     50.21000000    67.22000000    28.13000000
   H     50.26000000    69.87000000    27.24000000
   H     47.79000000    69.89000000    27.71000000
   H     48.67000000    70.70000000    28.98000000
   N     51.18000000    70.44000000    29.81000000
   C     52.11000000    70.73000000    30.88000000
   C     51.41000000    70.73000000    32.23000000
   O     50.32000000    71.26000000    32.42000000
   H     50.61000000    71.24000000    29.62000000
   H     52.62000000    71.66000000    30.66000000
   H     52.85000000    69.93000000    31.01000000
   N     52.01000000    70.06000000    33.21000000
   C     51.38000000    69.72000000    34.48000000
   C     52.10000000    70.21000000    35.72000000
   O     51.41000000    70.30000000    36.74000000
   C     51.15000000    68.21000000    34.49000000
   C     50.49000000    67.75000000    33.20000000
   N     49.26000000    68.17000000    32.90000000
   O     51.07000000    66.95000000    32.47000000
   H     52.90000000    69.64000000    32.96000000
   H     50.44000000    70.26000000    34.52000000
   H     50.59000000    67.99000000    35.40000000
   H     52.09000000    67.67000000    34.61000000
   H     48.78000000    68.86000000    33.47000000
   H     48.82000000    67.88000000    32.03000000
   N     53.34000000    70.71000000    35.62000000
   C     53.99000000    71.29000000    36.78000000
   C     54.07000000    70.39000000    38.00000000
   O     54.46000000    69.23000000    37.96000000
   H     53.87000000    70.48000000    34.79000000
   H     53.50000000    72.22000000    37.08000000
   H     55.02000000    71.59000000    36.56000000
   N     53.67000000    70.99000000    39.13000000
   C     53.42000000    70.44000000    40.44000000
   C     52.28000000    69.44000000    40.50000000
   O     51.91000000    68.88000000    41.53000000
   C     54.73000000    69.99000000    41.08000000
   C     54.79000000    69.62000000    42.54000000
   C     54.52000000    70.58000000    43.52000000
   C     55.27000000    68.36000000    42.90000000
   C     54.71000000    70.28000000    44.88000000
   C     55.38000000    68.01000000    44.25000000
   C     55.00000000    68.95000000    45.23000000
   O     55.06000000    68.68000000    46.57000000
   H     53.30000000    71.91000000    38.94000000
   H     53.11000000    71.26000000    41.10000000
   H     55.46000000    70.77000000    40.85000000
   H     55.06000000    69.09000000    40.56000000
   H     54.09000000    71.54000000    43.25000000
   H     55.46000000    67.61000000    42.15000000
   H     54.48000000    71.04000000    45.62000000
   H     55.77000000    67.05000000    44.58000000
   H     54.76000000    69.38000000    47.16000000
   N     51.54000000    69.22000000    39.41000000
   C     50.40000000    68.36000000    39.18000000
   C     49.13000000    68.77000000    39.93000000
   O     48.03000000    68.65000000    39.39000000
   C     50.84000000    66.93000000    39.46000000
   C     52.22000000    66.62000000    38.90000000
   C     49.76000000    65.92000000    39.10000000
   C     52.48000000    66.58000000    37.40000000
   H     51.85000000    69.73000000    38.59000000
   H     50.13000000    68.35000000    38.12000000
   H     51.02000000    66.94000000    40.54000000
   H     52.72000000    65.74000000    39.32000000
   H     52.90000000    67.32000000    39.39000000
   H     49.74000000    65.85000000    38.01000000
   H     50.03000000    64.95000000    39.51000000
   H     48.77000000    66.25000000    39.42000000
   H     52.21000000    67.54000000    36.96000000
   H     53.56000000    66.41000000    37.33000000
   H     51.93000000    65.75000000    36.95000000
   N     49.20000000    69.29000000    41.16000000
   C     48.13000000    70.06000000    41.76000000
   C     46.94000000    69.28000000    42.31000000
   O     46.17000000    69.89000000    43.05000000
   C     48.71000000    70.91000000    42.88000000
   O     49.67000000    71.77000000    42.32000000
   H     50.11000000    69.39000000    41.59000000
   H     47.79000000    70.68000000    40.93000000
   H     49.10000000    70.25000000    43.65000000
   H     47.92000000    71.53000000    43.31000000
   H     50.23000000    72.16000000    43.00000000
   N     46.78000000    67.98000000    42.06000000
   C     45.54000000    67.23000000    42.09000000
   C     44.56000000    67.61000000    40.98000000
   O     43.38000000    67.31000000    41.11000000
   C     44.95000000    67.08000000    43.48000000
   H     47.59000000    67.48000000    41.73000000
   H     45.82000000    66.21000000    41.83000000
   H     45.69000000    66.67000000    44.18000000
   H     44.62000000    68.08000000    43.74000000
   H     44.16000000    66.34000000    43.37000000
   N     45.03000000    68.30000000    39.94000000
   C     44.35000000    68.71000000    38.72000000
   C     44.27000000    67.53000000    37.77000000
   O     45.28000000    66.86000000    37.54000000
   C     45.04000000    69.87000000    38.01000000
   H     46.01000000    68.53000000    39.90000000
   H     43.31000000    68.95000000    38.97000000
   H     45.67000000    69.49000000    37.21000000
   H     44.22000000    70.42000000    37.54000000
   H     45.64000000    70.45000000    38.71000000
   N     43.15000000    67.42000000    37.06000000
   C     43.05000000    66.40000000    36.03000000
   C     43.52000000    65.01000000    36.43000000
   O     44.03000000    64.34000000    35.53000000
   C     43.76000000    66.94000000    34.79000000
   C     43.13000000    68.22000000    34.26000000
   C     43.41000000    68.41000000    32.78000000
   O     42.67000000    67.83000000    31.95000000
   O     44.41000000    69.10000000    32.46000000
   H     42.37000000    68.03000000    37.26000000
   H     41.99000000    66.22000000    35.85000000
   H     43.60000000    66.28000000    33.94000000
   H     44.84000000    67.02000000    34.96000000
   H     43.40000000    69.14000000    34.78000000
   H     42.05000000    68.20000000    34.41000000
   N     43.39000000    64.55000000    37.68000000
   C     43.88000000    63.24000000    38.08000000
   H     44.81900000    63.35400000    38.62200000
   H     43.14500000    62.75800000    38.72400000
   H     44.04500000    62.62700000    37.19400000
   H     42.79000000    65.08000000    38.29000000
  Ca     45.12000000    71.17000000    31.01000000
   O     46.47000000    72.21000000    28.74000000
   H     47.32000000    72.10000000    28.32000000
   H     45.97000000    72.75000000    28.12000000
   O     43.49000000    69.44000000    29.56000000
   H     43.34000000    69.21000000    28.64000000
   H     43.19000000    68.67000000    30.04000000
   O     43.05000000    72.04000000    33.18000000
   H     42.97000000    73.00000000    33.22000000
   H     42.45000000    71.73000000    33.86000000
   O     42.86000000    72.65000000    29.91000000
   H     42.26000000    72.37000000    29.22000000
   H     42.34000000    73.21000000    30.48000000
   O     47.46000000    71.17000000    32.26000000
   H     48.38000000    71.33000000    32.04000000
   H     47.47000000    70.94000000    33.19000000
   O     45.64000000    73.52000000    31.89000000
   H     45.06000000    74.27000000    31.79000000
   H     46.19000000    73.74000000    32.64000000

Ca 1.00



