%chk=loop3.cluster201.chk
%nprocshared=20
%mem=10GB
%nosave
#b3lyp/svp scf=(tight,noincore,xqc) Test 
#IOP(5/87=12) Density=Current Pop=(MK,readradii) iop(6/33=2) iop(6/42=6)

loop3.cluster201 

   0  1 
   C     57.67000000    38.63000000    50.06000000
   C     58.09000000    38.03000000    51.39000000
   O     58.15000000    36.80000000    51.51000000
   H     56.81200000    39.28500000    50.21200000
   H     58.49600000    39.20600000    49.64300000
   H     57.39900000    37.83100000    49.37000000
   N     58.43000000    38.80000000    52.42000000
   C     58.65000000    38.36000000    53.78000000
   C     58.36000000    39.44000000    54.81000000
   O     58.08000000    40.60000000    54.49000000
   C     60.09000000    37.86000000    53.88000000
   C     60.39000000    37.00000000    55.09000000
   O     60.19000000    35.76000000    55.03000000
   O     60.75000000    37.49000000    56.18000000
   H     58.60000000    39.78000000    52.24000000
   H     57.93000000    37.60000000    54.10000000
   H     60.82000000    38.66000000    53.86000000
   H     60.41000000    37.51000000    52.89000000
   N     58.30000000    39.06000000    56.09000000
   C     57.86000000    39.88000000    57.20000000
   C     59.00000000    40.23000000    58.15000000
   O     58.65000000    41.01000000    59.03000000
   C     56.70000000    39.14000000    57.87000000
   C     55.63000000    39.00000000    56.79000000
   C     54.42000000    38.39000000    57.48000000
   C     53.28000000    38.16000000    56.48000000
   N     52.21000000    37.40000000    57.13000000
   H     58.60000000    38.11000000    56.24000000
   H     57.58000000    40.85000000    56.81000000
   H     56.29000000    39.76000000    58.67000000
   H     56.98000000    38.13000000    58.18000000
   H     56.02000000    38.29000000    56.06000000
   H     55.42000000    39.96000000    56.30000000
   H     54.08000000    39.06000000    58.27000000
   H     54.62000000    37.43000000    57.96000000
   H     53.73000000    37.56000000    55.69000000
   H     52.97000000    39.17000000    56.22000000
   H     51.32000000    37.61000000    56.71000000
   H     52.33000000    36.39000000    57.11000000
   H     52.10000000    37.74000000    58.08000000
   N     60.23000000    39.73000000    58.02000000
   C     61.38000000    40.05000000    58.84000000
   C     62.65000000    40.21000000    58.02000000
   O     63.55000000    40.87000000    58.54000000
   C     61.55000000    38.97000000    59.91000000
   C     61.67000000    37.56000000    59.34000000
   O     62.61000000    37.22000000    58.59000000
   O     60.77000000    36.73000000    59.58000000
   H     60.40000000    39.10000000    57.25000000
   H     61.21000000    41.03000000    59.29000000
   H     60.78000000    39.14000000    60.65000000
   H     62.48000000    39.18000000    60.44000000
   N     62.77000000    39.63000000    56.83000000
   C     63.79000000    39.97000000    55.85000000
   C     64.75000000    38.86000000    55.45000000
   O     65.52000000    39.00000000    54.51000000
   H     62.02000000    39.04000000    56.49000000
   H     64.43000000    40.75000000    56.25000000
   H     63.30000000    40.33000000    54.95000000
   N     64.74000000    37.67000000    56.07000000
   C     65.26000000    36.44000000    55.53000000
   C     64.09000000    35.55000000    55.14000000
   O     63.16000000    35.41000000    55.93000000
   C     66.25000000    35.73000000    56.45000000
   C     66.59000000    34.34000000    55.93000000
   N     67.73000000    34.23000000    55.24000000
   O     65.86000000    33.36000000    56.06000000
   H     64.05000000    37.52000000    56.79000000
   H     65.75000000    36.57000000    54.56000000
   H     65.82000000    35.69000000    57.45000000
   H     67.17000000    36.31000000    56.36000000
   H     68.14000000    35.09000000    54.92000000
   H     67.89000000    33.32000000    54.84000000
   N     64.10000000    34.89000000    53.98000000
   C     63.09000000    34.15000000    53.24000000
   C     62.58000000    32.89000000    53.92000000
   O     61.56000000    32.40000000    53.44000000
   H     64.96000000    35.02000000    53.48000000
   H     63.49000000    33.87000000    52.27000000
   H     62.18000000    34.72000000    53.11000000
   N     63.22000000    32.39000000    54.98000000
   C     62.78000000    31.25000000    55.76000000
   C     61.38000000    31.48000000    56.31000000
   O     61.16000000    32.56000000    56.85000000
   C     63.81000000    30.76000000    56.78000000
   C     63.33000000    29.51000000    57.48000000
   C     63.59000000    28.26000000    56.89000000
   C     62.65000000    29.59000000    58.69000000
   C     63.24000000    27.08000000    57.55000000
   C     62.40000000    28.40000000    59.39000000
   C     62.65000000    27.13000000    58.83000000
   O     62.36000000    26.05000000    59.61000000
   H     64.09000000    32.82000000    55.25000000
   H     62.59000000    30.42000000    55.07000000
   H     64.01000000    31.62000000    57.42000000
   H     64.75000000    30.60000000    56.24000000
   H     64.15000000    28.26000000    55.97000000
   H     62.43000000    30.57000000    59.09000000
   H     63.44000000    26.16000000    57.02000000
   H     61.95000000    28.49000000    60.37000000
   H     61.87000000    26.21000000    60.42000000
   N     60.44000000    30.54000000    56.17000000
   C     59.06000000    30.44000000    56.59000000
   C     58.81000000    30.54000000    58.09000000
   O     59.54000000    31.14000000    58.88000000
   C     58.15000000    31.38000000    55.81000000
   C     57.97000000    31.08000000    54.33000000
   C     58.48000000    32.84000000    56.11000000
   C     56.66000000    31.43000000    53.62000000
   H     60.82000000    29.73000000    55.71000000
   H     58.73000000    29.42000000    56.40000000
   H     57.21000000    31.19000000    56.33000000
   H     57.97000000    30.00000000    54.21000000
   H     58.80000000    31.45000000    53.72000000
   H     59.22000000    33.19000000    55.39000000
   H     57.57000000    33.38000000    55.86000000
   H     58.56000000    32.96000000    57.19000000
   H     55.77000000    31.08000000    54.15000000
   H     56.61000000    32.50000000    53.43000000
   H     56.69000000    30.95000000    52.65000000
   N     57.73000000    29.93000000    58.58000000
   C     57.18000000    30.15000000    59.90000000
   C     56.05000000    29.22000000    60.33000000
   O     55.81000000    29.16000000    61.53000000
   C     56.68000000    31.59000000    59.97000000
   O     55.73000000    31.81000000    58.95000000
   H     57.08000000    29.58000000    57.88000000
   H     57.98000000    30.05000000    60.62000000
   H     57.56000000    32.23000000    59.85000000
   H     56.21000000    31.76000000    60.94000000
   H     55.23000000    32.60000000    59.15000000
   N     55.47000000    28.36000000    59.50000000
   C     54.56000000    27.34000000    60.00000000
   C     53.44000000    27.62000000    60.98000000
   O     53.21000000    26.86000000    61.92000000
   C     55.29000000    26.02000000    60.26000000
   H     55.68000000    28.31000000    58.51000000
   H     54.00000000    27.08000000    59.10000000
   H     54.61000000    25.18000000    60.42000000
   H     55.94000000    25.82000000    59.41000000
   H     55.89000000    26.05000000    61.16000000
   N     52.62000000    28.68000000    60.91000000
   C     52.48000000    29.77000000    59.97000000
   C     51.38000000    29.51000000    58.95000000
   O     50.35000000    28.97000000    59.36000000
   C     52.39000000    31.03000000    60.82000000
   H     51.85000000    28.68000000    61.56000000
   H     53.44000000    29.79000000    59.44000000
   H     51.56000000    30.95000000    61.52000000
   H     53.22000000    31.13000000    61.52000000
   H     52.31000000    31.93000000    60.21000000
   N     51.46000000    29.78000000    57.65000000
   C     52.50000000    30.45000000    56.89000000
   C     52.81000000    29.73000000    55.58000000
   O     53.91000000    29.87000000    55.03000000
   C     52.00000000    31.87000000    56.60000000
   C     53.10000000    32.78000000    56.06000000
   C     52.94000000    34.26000000    56.36000000
   O     53.06000000    34.63000000    57.55000000
   O     52.65000000    35.09000000    55.47000000
   H     50.63000000    29.50000000    57.14000000
   H     53.35000000    30.52000000    57.56000000
   H     51.52000000    32.26000000    57.50000000
   H     51.26000000    31.77000000    55.81000000
   H     53.10000000    32.62000000    54.98000000
   H     54.09000000    32.54000000    56.43000000
   N     51.91000000    28.93000000    55.01000000
   C     52.14000000    28.09000000    53.85000000
   H     53.17400000    27.74400000    53.85200000
   H     51.47000000    27.23100000    53.88400000
   H     51.95100000    28.66300000    52.94200000
   H     50.98000000    28.83000000    55.37000000
  Ca     61.13000000    35.16000000    57.54000000
   O     60.44000000    33.58000000    59.80000000
   H     61.00000000    33.35000000    60.54000000
   H     60.26000000    32.75000000    59.36000000
   O     58.44000000    35.50000000    57.82000000
   H     57.90000000    35.41000000    58.61000000
   H     57.82000000    35.45000000    57.10000000
   O     63.34000000    33.83000000    58.62000000
   H     63.64000000    32.99000000    58.97000000
   H     64.14000000    34.34000000    58.47000000

Ca 1.00



