%chk=loop3.cluster30.chk
%nprocshared=20
%mem=10GB
%nosave
#b3lyp/svp scf=(tight,noincore,xqc) Test 
#IOP(5/87=12) Density=Current Pop=(MK,readradii) iop(6/33=2) iop(6/42=6)

loop3.cluster30 

   0  1 
   C     57.81000000    48.62000000    36.42000000
   C     57.20000000    47.93000000    37.63000000
   O     57.72000000    46.90000000    38.06000000
   H     58.82200000    48.24700000    36.26200000
   H     57.20400000    48.41100000    35.53800000
   H     57.84200000    49.69600000    36.59200000
   N     56.06000000    48.35000000    38.18000000
   C     55.44000000    47.81000000    39.37000000
   C     54.54000000    46.62000000    39.03000000
   O     53.37000000    46.80000000    38.70000000
   C     54.69000000    48.96000000    40.04000000
   C     54.00000000    48.56000000    41.33000000
   O     53.00000000    49.26000000    41.61000000
   O     54.35000000    47.50000000    41.91000000
   H     55.62000000    49.14000000    37.74000000
   H     56.20000000    47.40000000    40.04000000
   H     54.03000000    49.40000000    39.30000000
   H     55.42000000    49.70000000    40.36000000
   N     54.97000000    45.39000000    39.31000000
   C     54.41000000    44.15000000    38.84000000
   C     53.26000000    43.74000000    39.76000000
   O     52.36000000    43.06000000    39.28000000
   C     55.47000000    43.06000000    38.89000000
   C     56.74000000    43.41000000    38.13000000
   C     56.37000000    43.96000000    36.76000000
   C     57.59000000    44.05000000    35.83000000
   N     57.23000000    44.41000000    34.45000000
   H     55.92000000    45.37000000    39.67000000
   H     54.00000000    44.28000000    37.84000000
   H     55.07000000    42.25000000    38.28000000
   H     55.68000000    42.63000000    39.88000000
   H     57.32000000    42.50000000    37.96000000
   H     57.34000000    44.16000000    38.66000000
   H     55.93000000    44.96000000    36.69000000
   H     55.58000000    43.34000000    36.36000000
   H     57.88000000    43.00000000    35.79000000
   H     58.40000000    44.67000000    36.21000000
   H     57.04000000    45.40000000    34.36000000
   H     57.77000000    44.03000000    33.69000000
   H     56.33000000    44.00000000    34.20000000
   N     53.20000000    44.15000000    41.03000000
   C     52.17000000    43.76000000    41.97000000
   C     51.24000000    44.89000000    42.38000000
   O     50.41000000    44.76000000    43.28000000
   C     52.56000000    42.94000000    43.20000000
   C     53.70000000    43.59000000    43.98000000
   O     54.01000000    42.94000000    45.00000000
   O     54.06000000    44.73000000    43.61000000
   H     53.86000000    44.87000000    41.29000000
   H     51.38000000    43.22000000    41.45000000
   H     53.02000000    42.06000000    42.74000000
   H     51.65000000    42.66000000    43.72000000
   N     51.43000000    46.05000000    41.76000000
   C     50.51000000    47.16000000    41.89000000
   C     50.63000000    47.73000000    43.30000000
   O     49.63000000    48.34000000    43.68000000
   H     52.15000000    46.15000000    41.05000000
   H     49.51000000    46.80000000    41.63000000
   H     50.78000000    47.92000000    41.16000000
   N     51.74000000    47.57000000    44.01000000
   C     51.84000000    48.00000000    45.39000000
   C     52.52000000    49.35000000    45.58000000
   O     53.06000000    49.56000000    46.67000000
   C     52.22000000    46.91000000    46.38000000
   C     53.69000000    46.52000000    46.29000000
   N     54.17000000    45.55000000    47.06000000
   O     54.44000000    47.08000000    45.48000000
   H     52.52000000    47.11000000    43.55000000
   H     50.81000000    48.23000000    45.68000000
   H     51.73000000    45.96000000    46.15000000
   H     52.09000000    47.17000000    47.43000000
   H     53.60000000    45.10000000    47.76000000
   H     55.04000000    45.04000000    46.93000000
   N     52.55000000    50.28000000    44.63000000
   C     52.97000000    51.66000000    44.77000000
   C     54.47000000    51.83000000    45.00000000
   O     54.94000000    52.94000000    45.23000000
   H     52.30000000    49.99000000    43.70000000
   H     52.36000000    52.13000000    45.54000000
   H     52.67000000    52.15000000    43.84000000
   N     55.32000000    50.80000000    44.95000000
   C     56.76000000    50.94000000    44.86000000
   C     57.44000000    49.86000000    44.04000000
   O     56.90000000    48.76000000    43.92000000
   C     57.44000000    50.88000000    46.23000000
   C     57.34000000    49.60000000    47.02000000
   C     56.27000000    49.45000000    47.91000000
   C     58.44000000    48.74000000    47.12000000
   C     56.33000000    48.38000000    48.82000000
   C     58.45000000    47.65000000    47.99000000
   C     57.38000000    47.43000000    48.87000000
   O     57.31000000    46.30000000    49.63000000
   H     54.97000000    49.87000000    44.79000000
   H     57.04000000    51.89000000    44.41000000
   H     57.04000000    51.69000000    46.84000000
   H     58.48000000    51.10000000    45.99000000
   H     55.50000000    50.20000000    47.97000000
   H     59.21000000    48.92000000    46.39000000
   H     55.43000000    48.23000000    49.39000000
   H     59.30000000    46.98000000    48.05000000
   H     58.10000000    45.77000000    49.51000000
   N     58.58000000    50.16000000    43.40000000
   C     59.42000000    49.38000000    42.52000000
   C     60.58000000    48.75000000    43.28000000
   O     61.39000000    49.42000000    43.92000000
   C     59.82000000    50.34000000    41.41000000
   C     58.68000000    51.01000000    40.64000000
   C     60.77000000    49.64000000    40.44000000
   C     58.98000000    52.14000000    39.66000000
   H     58.91000000    51.09000000    43.59000000
   H     58.82000000    48.60000000    42.04000000
   H     60.33000000    51.21000000    41.81000000
   H     57.92000000    51.39000000    41.32000000
   H     58.26000000    50.29000000    39.95000000
   H     60.22000000    48.84000000    39.95000000
   H     61.30000000    50.30000000    39.76000000
   H     61.57000000    49.16000000    41.02000000
   H     59.44000000    52.93000000    40.26000000
   H     59.78000000    51.86000000    38.98000000
   H     58.07000000    52.37000000    39.12000000
   N     60.78000000    47.44000000    43.14000000
   C     61.97000000    46.79000000    43.66000000
   C     62.96000000    46.28000000    42.62000000
   O     62.68000000    46.28000000    41.42000000
   C     61.52000000    45.61000000    44.52000000
   O     60.92000000    44.62000000    43.71000000
   H     60.09000000    46.86000000    42.69000000
   H     62.61000000    47.43000000    44.26000000
   H     60.72000000    46.06000000    45.10000000
   H     62.41000000    45.19000000    44.99000000
   H     60.17000000    44.99000000    43.24000000
   N     64.17000000    45.93000000    43.06000000
   C     65.26000000    45.47000000    42.22000000
   C     64.99000000    44.31000000    41.27000000
   O     65.61000000    44.26000000    40.21000000
   C     66.33000000    44.97000000    43.19000000
   H     64.37000000    46.16000000    44.02000000
   H     65.80000000    46.26000000    41.69000000
   H     67.13000000    44.40000000    42.72000000
   H     66.72000000    45.77000000    43.82000000
   H     65.91000000    44.23000000    43.88000000
   N     63.98000000    43.48000000    41.51000000
   C     63.62000000    42.34000000    40.69000000
   C     62.81000000    42.75000000    39.47000000
   O     62.77000000    42.09000000    38.43000000
   C     62.78000000    41.50000000    41.64000000
   H     63.59000000    43.53000000    42.44000000
   H     64.56000000    41.91000000    40.34000000
   H     61.92000000    42.02000000    42.08000000
   H     62.46000000    40.63000000    41.07000000
   H     63.42000000    41.11000000    42.43000000
   N     62.03000000    43.81000000    39.72000000
   C     60.98000000    44.31000000    38.86000000
   C     61.61000000    45.34000000    37.94000000
   O     61.22000000    45.33000000    36.77000000
   C     59.97000000    45.03000000    39.75000000
   C     59.16000000    44.19000000    40.74000000
   C     58.26000000    45.13000000    41.53000000
   O     57.06000000    45.25000000    41.19000000
   O     58.72000000    45.73000000    42.53000000
   H     62.28000000    44.34000000    40.54000000
   H     60.58000000    43.46000000    38.30000000
   H     59.19000000    45.47000000    39.13000000
   H     60.58000000    45.72000000    40.33000000
   H     59.80000000    43.66000000    41.45000000
   H     58.57000000    43.40000000    40.28000000
   N     62.45000000    46.26000000    38.43000000
   C     63.30000000    47.07000000    37.59000000
   H     64.26400000    46.57600000    37.46600000
   H     62.83100000    47.20000000    36.61500000
   H     63.44900000    48.04500000    38.05500000
   H     62.40000000    46.33000000    39.44000000
  Ca     56.08000000    46.25000000    43.51000000
   O     57.06000000    43.43000000    44.02000000
   H     56.40000000    42.75000000    44.14000000
   H     57.84000000    42.96000000    43.75000000
   O     57.36000000    46.06000000    45.83000000
   H     57.96000000    45.44000000    46.24000000
   H     57.21000000    46.73000000    46.50000000

Ca 1.00



