%chk=loop4.cluster102.chk
%nprocshared=20
%mem=10GB
%nosave
#b3lyp/svp scf=(tight,noincore,xqc) Test 
#IOP(5/87=12) Density=Current Pop=(MK,readradii) iop(6/33=2) iop(6/42=6)

loop4.cluster102 

   -3  1 
   C     44.23000000    47.59000000    49.95000000
   C     44.63000000    46.79000000    51.18000000
   O     45.37000000    45.82000000    51.04000000
   H     43.37100000    48.21700000    50.18800000
   H     45.06300000    48.22000000    49.63900000
   H     43.96800000    46.90800000    49.14100000
   N     44.16000000    47.08000000    52.40000000
   C     44.46000000    46.56000000    53.72000000
   C     45.87000000    46.78000000    54.24000000
   O     46.29000000    46.08000000    55.16000000
   C     43.87000000    45.17000000    53.94000000
   C     44.58000000    44.06000000    53.17000000
   O     43.96000000    43.39000000    52.31000000
   O     45.78000000    43.85000000    53.45000000
   H     43.44000000    47.79000000    52.39000000
   H     43.93000000    47.21000000    54.41000000
   H     42.81000000    45.18000000    53.70000000
   H     43.92000000    44.86000000    54.98000000
   N     46.65000000    47.75000000    53.76000000
   C     47.81000000    48.35000000    54.38000000
   C     47.56000000    48.67000000    55.85000000
   O     48.45000000    48.49000000    56.68000000
   C     49.18000000    47.72000000    54.09000000
   C     50.27000000    48.77000000    53.90000000
   C     49.24000000    46.82000000    52.86000000
   C     51.67000000    48.21000000    54.15000000
   H     46.22000000    48.26000000    53.00000000
   H     47.96000000    49.36000000    54.00000000
   H     49.33000000    47.06000000    54.95000000
   H     50.13000000    49.57000000    54.63000000
   H     50.09000000    49.08000000    52.88000000
   H     49.21000000    47.32000000    51.89000000
   H     50.10000000    46.16000000    52.87000000
   H     48.36000000    46.18000000    52.95000000
   H     52.42000000    48.98000000    53.97000000
   H     51.72000000    47.87000000    55.19000000
   H     51.85000000    47.37000000    53.48000000
   N     46.41000000    49.22000000    56.25000000
   C     46.09000000    49.97000000    57.45000000
   C     44.95000000    49.41000000    58.30000000
   O     43.84000000    49.93000000    58.21000000
   C     45.99000000    51.42000000    57.00000000
   C     44.93000000    51.63000000    55.93000000
   O     44.66000000    52.81000000    55.63000000
   O     44.37000000    50.64000000    55.41000000
   H     45.71000000    49.22000000    55.53000000
   H     46.89000000    49.96000000    58.19000000
   H     46.97000000    51.70000000    56.63000000
   H     45.76000000    52.11000000    57.82000000
   N     45.12000000    48.43000000    59.19000000
   C     46.23000000    47.50000000    59.18000000
   C     46.12000000    46.21000000    58.39000000
   O     45.02000000    45.90000000    57.93000000
   H     44.33000000    48.34000000    59.81000000
   H     46.40000000    47.18000000    60.21000000
   H     47.07000000    48.07000000    58.77000000
   N     47.16000000    45.37000000    58.44000000
   C     48.53000000    45.63000000    58.84000000
   C     49.53000000    45.05000000    57.85000000
   O     49.37000000    43.99000000    57.25000000
   C     48.78000000    45.16000000    60.27000000
   C     50.12000000    45.66000000    60.80000000
   O     50.12000000    46.66000000    61.55000000
   O     51.14000000    45.00000000    60.54000000
   H     47.00000000    44.54000000    57.90000000
   H     48.67000000    46.71000000    58.82000000
   H     48.72000000    44.07000000    60.29000000
   H     47.98000000    45.55000000    60.90000000
   N     50.72000000    45.63000000    57.68000000
   C     51.12000000    46.97000000    58.05000000
   C     52.60000000    47.24000000    58.26000000
   O     53.10000000    48.32000000    57.95000000
   H     51.30000000    45.08000000    57.06000000
   H     50.72000000    47.29000000    59.02000000
   H     50.81000000    47.56000000    57.19000000
   N     53.37000000    46.24000000    58.71000000
   C     54.78000000    46.34000000    59.00000000
   C     55.70000000    46.35000000    57.79000000
   O     56.90000000    46.53000000    58.03000000
   C     55.27000000    45.37000000    60.08000000
   C     55.51000000    43.94000000    59.62000000
   C     55.89000000    43.00000000    60.76000000
   N     55.05000000    42.00000000    61.06000000
   O     56.93000000    43.09000000    61.42000000
   H     52.87000000    45.40000000    59.01000000
   H     54.92000000    47.34000000    59.42000000
   H     54.53000000    45.33000000    60.88000000
   H     56.22000000    45.77000000    60.42000000
   H     56.26000000    43.85000000    58.83000000
   H     54.61000000    43.55000000    59.15000000
   H     54.23000000    41.80000000    60.51000000
   H     55.37000000    41.48000000    61.86000000
   N     55.11000000    46.25000000    56.60000000
   C     55.97000000    46.17000000    55.44000000
   C     56.41000000    44.77000000    55.02000000
   O     55.59000000    43.86000000    55.12000000
   C     55.32000000    46.84000000    54.23000000
   C     56.09000000    46.73000000    52.91000000
   C     55.24000000    48.34000000    54.52000000
   H     54.11000000    46.27000000    56.46000000
   H     56.87000000    46.75000000    55.61000000
   H     54.33000000    46.39000000    54.20000000
   H     55.71000000    47.44000000    52.18000000
   H     57.15000000    46.97000000    53.06000000
   H     56.07000000    45.72000000    52.53000000
   H     54.36000000    48.48000000    55.14000000
   H     56.06000000    48.85000000    55.01000000
   H     54.88000000    48.92000000    53.67000000
   N     57.67000000    44.47000000    54.70000000
   C     58.12000000    43.18000000    54.20000000
   C     57.47000000    42.81000000    52.87000000
   O     57.03000000    43.62000000    52.06000000
   C     58.05000000    42.07000000    55.25000000
   C     59.02000000    42.48000000    56.35000000
   N     60.34000000    42.35000000    56.34000000
   O     58.65000000    43.08000000    57.36000000
   H     58.35000000    45.21000000    54.61000000
   H     59.16000000    43.26000000    53.88000000
   H     58.55000000    41.18000000    54.89000000
   H     57.03000000    41.95000000    55.62000000
   H     60.83000000    41.85000000    55.60000000
   H     60.81000000    42.79000000    57.11000000
   N     57.42000000    41.54000000    52.48000000
   C     56.92000000    41.13000000    51.18000000
   C     55.41000000    41.11000000    50.98000000
   O     54.65000000    41.11000000    51.94000000
   C     57.33000000    39.67000000    51.05000000
   C     58.80000000    39.34000000    51.21000000
   C     59.27000000    38.32000000    52.04000000
   C     59.70000000    40.13000000    50.48000000
   C     60.66000000    38.14000000    52.12000000
   C     61.09000000    39.95000000    50.57000000
   C     61.58000000    38.90000000    51.37000000
   O     62.91000000    38.61000000    51.38000000
   H     57.73000000    40.86000000    53.16000000
   H     57.35000000    41.80000000    50.43000000
   H     57.00000000    39.27000000    50.09000000
   H     56.80000000    39.07000000    51.79000000
   H     58.51000000    37.79000000    52.58000000
   H     59.42000000    40.84000000    49.72000000
   H     60.95000000    37.41000000    52.86000000
   H     61.81000000    40.54000000    50.01000000
   H     63.43000000    39.04000000    50.69000000
   N     55.05000000    40.97000000    49.70000000
   C     53.71000000    40.75000000    49.21000000
   C     52.71000000    41.86000000    49.52000000
   O     51.50000000    41.62000000    49.59000000
   C     53.18000000    39.33000000    49.37000000
   C     53.97000000    38.16000000    48.80000000
   C     53.85000000    37.97000000    47.29000000
   O     54.83000000    37.90000000    46.52000000
   O     52.74000000    37.90000000    46.71000000
   H     55.79000000    40.87000000    49.01000000
   H     53.72000000    40.91000000    48.13000000
   H     52.15000000    39.29000000    49.03000000
   H     53.02000000    39.16000000    50.44000000
   H     53.72000000    37.26000000    49.35000000
   H     55.02000000    38.20000000    49.08000000
   N     53.17000000    43.11000000    49.64000000
   C     52.38000000    44.31000000    49.77000000
   C     52.84000000    45.29000000    48.70000000
   O     52.18000000    45.40000000    47.66000000
   C     52.47000000    45.00000000    51.14000000
   C     51.98000000    44.08000000    52.26000000
   C     50.61000000    43.43000000    52.20000000
   O     50.27000000    42.51000000    52.97000000
   O     49.67000000    43.96000000    51.58000000
   H     54.16000000    43.27000000    49.65000000
   H     51.35000000    43.99000000    49.59000000
   H     51.80000000    45.86000000    51.13000000
   H     53.49000000    45.32000000    51.34000000
   H     52.08000000    44.61000000    53.21000000
   H     52.66000000    43.23000000    52.31000000
   N     54.03000000    45.87000000    48.81000000
   C     54.58000000    46.67000000    47.72000000
   H     55.59200000    46.33200000    47.49700000
   H     53.95600000    46.55600000    46.83400000
   H     54.60400000    47.71900000    48.01500000
   H     54.64000000    45.48000000    49.51000000
  Ca     47.79000000    42.45000000    52.53000000
   O     47.26000000    41.17000000    54.78000000
   H     47.32000000    40.22000000    54.68000000
   H     47.71000000    41.35000000    55.60000000
   O     46.28000000    43.20000000    50.27000000
   H     46.04000000    42.93000000    49.38000000
   H     45.61000000    43.85000000    50.51000000
   O     48.31000000    44.02000000    54.65000000
   H     47.63000000    44.69000000    54.69000000
   H     48.69000000    44.00000000    55.53000000
   O     46.14000000    40.17000000    51.80000000
   H     46.57000000    39.32000000    51.79000000
   H     45.22000000    39.98000000    51.64000000
   O     49.02000000    40.96000000    50.54000000
   H     48.58000000    40.41000000    49.90000000
   H     49.80000000    41.28000000    50.09000000
   O     48.91000000    39.52000000    53.10000000
   H     48.40000000    38.83000000    52.69000000
   H     49.67000000    39.64000000    52.53000000

Ca 1.00



