%chk=loop1.cluster72.chk
%nprocshared=20
%mem=10GB
%nosave
#b3lyp/svp scf=(tight,noincore,xqc) Test 
#IOP(5/87=12) Density=Current Pop=(MK,readradii) iop(6/33=2) iop(6/42=6)

loop1.cluster72 

   0  1 
   C     46.16000000    42.56000000     8.06000000
   C     46.40000000    42.10000000     6.63000000
   O     47.25000000    42.64000000     5.92000000
   H     45.11300000    42.40600000     8.32000000
   H     46.79000000    41.98500000     8.73800000
   H     46.40300000    43.61900000     8.14700000
   N     45.60000000    41.16000000     6.12000000
   C     45.59000000    40.72000000     4.74000000
   C     44.55000000    41.35000000     3.83000000
   O     44.31000000    40.69000000     2.82000000
   C     45.53000000    39.19000000     4.71000000
   C     44.46000000    38.49000000     5.53000000
   O     43.68000000    39.13000000     6.27000000
   O     44.51000000    37.24000000     5.60000000
   H     44.88000000    40.78000000     6.71000000
   H     46.55000000    40.96000000     4.29000000
   H     46.46000000    38.79000000     5.10000000
   H     45.34000000    38.71000000     3.75000000
   N     43.91000000    42.49000000     4.13000000
   C     42.79000000    43.13000000     3.48000000
   C     42.99000000    44.63000000     3.34000000
   O     42.10000000    45.40000000     3.69000000
   C     41.46000000    42.83000000     4.16000000
   C     41.28000000    41.33000000     4.43000000
   C     40.09000000    40.94000000     5.30000000
   C     39.94000000    39.42000000     5.34000000
   N     40.90000000    38.87000000     6.32000000
   H     44.06000000    42.71000000     5.10000000
   H     42.68000000    42.79000000     2.45000000
   H     40.56000000    43.06000000     3.59000000
   H     41.40000000    43.24000000     5.17000000
   H     42.19000000    40.90000000     4.84000000
   H     41.21000000    40.82000000     3.47000000
   H     39.19000000    41.36000000     4.87000000
   H     40.08000000    41.44000000     6.27000000
   H     40.05000000    38.98000000     4.35000000
   H     38.99000000    39.20000000     5.82000000
   H     40.58000000    39.26000000     7.19000000
   H     40.79000000    37.89000000     6.49000000
   H     41.87000000    39.12000000     6.16000000
   N     44.12000000    45.17000000     2.87000000
   C     45.09000000    44.79000000     1.87000000
   C     44.58000000    44.34000000     0.51000000
   O     43.60000000    43.61000000     0.41000000
   C     46.19000000    43.93000000     2.50000000
   C     47.58000000    44.47000000     2.18000000
   O     47.97000000    45.50000000     2.77000000
   O     48.32000000    43.75000000     1.47000000
   H     44.04000000    46.16000000     3.06000000
   H     45.50000000    45.76000000     1.58000000
   H     46.07000000    42.96000000     2.01000000
   H     46.18000000    43.83000000     3.58000000
   N     45.18000000    44.67000000    -0.64000000
   C     46.42000000    45.40000000    -0.79000000
   C     46.66000000    45.34000000    -2.29000000
   O     46.07000000    46.14000000    -3.02000000
   H     44.67000000    44.41000000    -1.47000000
   H     47.24000000    45.11000000    -0.13000000
   H     46.25000000    46.46000000    -0.58000000
   N     47.37000000    44.41000000    -2.93000000
   C     48.17000000    43.41000000    -2.24000000
   C     47.31000000    42.29000000    -1.65000000
   O     46.53000000    41.71000000    -2.39000000
   C     49.20000000    42.87000000    -3.22000000
   C     50.05000000    41.69000000    -2.75000000
   O     50.92000000    41.93000000    -1.89000000
   O     49.80000000    40.57000000    -3.23000000
   H     47.47000000    44.49000000    -3.93000000
   H     48.72000000    43.97000000    -1.48000000
   H     49.94000000    43.63000000    -3.45000000
   H     48.77000000    42.56000000    -4.17000000
   N     47.42000000    42.05000000    -0.34000000
   C     46.81000000    40.87000000     0.24000000
   C     47.60000000    40.25000000     1.38000000
   O     47.29000000    39.10000000     1.69000000
   H     47.85000000    42.82000000     0.15000000
   H     46.85000000    40.11000000    -0.54000000
   H     45.83000000    41.25000000     0.53000000
   N     48.52000000    40.93000000     2.06000000
   C     49.26000000    40.44000000     3.20000000
   C     49.83000000    41.57000000     4.04000000
   O     50.04000000    42.68000000     3.56000000
   C     50.39000000    39.54000000     2.72000000
   C     50.95000000    38.68000000     3.85000000
   O     51.44000000    40.23000000     2.06000000
   H     48.77000000    41.86000000     1.75000000
   H     48.61000000    39.86000000     3.87000000
   H     49.99000000    38.94000000     1.90000000
   H     52.21000000    39.68000000     1.95000000
   H     51.78000000    39.14000000     4.39000000
   H     50.25000000    38.22000000     4.53000000
   H     51.48000000    37.92000000     3.28000000
   N     50.21000000    41.29000000     5.29000000
   C     50.93000000    42.16000000     6.20000000
   C     52.32000000    42.49000000     5.68000000
   O     52.75000000    43.63000000     5.88000000
   C     50.88000000    41.63000000     7.63000000
   C     51.36000000    42.65000000     8.67000000
   C     51.50000000    40.24000000     7.75000000
   C     51.51000000    42.18000000    10.12000000
   H     49.82000000    40.46000000     5.72000000
   H     50.38000000    43.10000000     6.28000000
   H     49.82000000    41.53000000     7.81000000
   H     50.80000000    43.58000000     8.58000000
   H     52.39000000    42.88000000     8.40000000
   H     52.58000000    40.24000000     7.61000000
   H     51.22000000    39.84000000     8.72000000
   H     51.24000000    39.53000000     6.96000000
   H     51.98000000    42.98000000    10.69000000
   H     50.53000000    41.97000000    10.52000000
   H     52.19000000    41.33000000    10.03000000
   N     52.93000000    41.69000000     4.81000000
   C     54.19000000    41.84000000     4.11000000
   C     55.46000000    42.40000000     4.74000000
   O     56.45000000    41.68000000     4.78000000
   C     53.94000000    42.46000000     2.74000000
   C     55.15000000    42.59000000     1.83000000
   O     53.34000000    43.74000000     2.74000000
   H     52.39000000    40.88000000     4.56000000
   H     54.43000000    40.80000000     3.89000000
   H     53.20000000    41.78000000     2.30000000
   H     53.87000000    44.27000000     2.14000000
   H     55.53000000    41.59000000     1.63000000
   H     54.85000000    42.98000000     0.86000000
   H     55.89000000    43.29000000     2.21000000
   N     55.40000000    43.56000000     5.41000000
   C     56.53000000    44.32000000     5.89000000
   C     57.61000000    44.82000000     4.94000000
   O     57.98000000    44.09000000     4.02000000
   C     57.19000000    43.67000000     7.10000000
   C     56.42000000    43.86000000     8.41000000
   O     58.38000000    44.31000000     7.50000000
   H     54.47000000    43.96000000     5.35000000
   H     56.09000000    45.25000000     6.25000000
   H     57.42000000    42.61000000     7.01000000
   H     58.98000000    43.64000000     7.82000000
   H     56.91000000    43.21000000     9.13000000
   H     56.47000000    44.87000000     8.82000000
   H     55.36000000    43.62000000     8.27000000
   N     58.15000000    46.03000000     5.09000000
   C     59.03000000    46.71000000     4.16000000
   C     58.63000000    48.02000000     3.51000000
   O     59.37000000    48.54000000     2.68000000
   C     60.38000000    46.86000000     4.86000000
   C     61.03000000    45.62000000     5.47000000
   C     61.87000000    44.92000000     4.41000000
   C     61.20000000    44.39000000     3.14000000
   N     62.14000000    43.60000000     2.33000000
   H     57.90000000    46.58000000     5.90000000
   H     59.20000000    46.05000000     3.30000000
   H     60.30000000    47.57000000     5.69000000
   H     61.11000000    47.24000000     4.15000000
   H     60.34000000    44.89000000     5.89000000
   H     61.67000000    45.94000000     6.29000000
   H     62.32000000    44.04000000     4.87000000
   H     62.66000000    45.60000000     4.07000000
   H     60.91000000    45.23000000     2.51000000
   H     60.32000000    43.80000000     3.39000000
   H     61.58000000    43.10000000     1.65000000
   H     62.80000000    44.15000000     1.79000000
   H     62.73000000    43.00000000     2.90000000
   N     57.50000000    48.67000000     3.78000000
   C     56.36000000    48.47000000     4.66000000
   C     56.66000000    48.35000000     6.14000000
   O     56.01000000    47.53000000     6.80000000
   C     55.39000000    47.47000000     4.05000000
   C     54.93000000    47.92000000     2.66000000
   C     54.13000000    46.77000000     2.07000000
   O     52.88000000    46.78000000     2.09000000
   O     54.62000000    45.73000000     1.58000000
   H     57.45000000    49.45000000     3.14000000
   H     55.85000000    49.44000000     4.60000000
   H     54.46000000    47.30000000     4.59000000
   H     56.02000000    46.59000000     3.86000000
   H     55.71000000    48.14000000     1.94000000
   H     54.25000000    48.77000000     2.73000000
   N     57.60000000    49.10000000     6.71000000
   C     58.00000000    49.10000000     8.10000000
   H     58.85000000    49.76900000     8.23300000
   H     57.16900000    49.44200000     8.71800000
   H     58.28300000    48.09000000     8.39700000
   H     57.94000000    49.88000000     6.16000000
  Ca     50.87000000    45.02000000     1.71000000
   O     52.59000000    45.04000000    -0.33300000
   H     53.45000000    45.46000000    -0.24300000
   H     52.66000000    44.55000000    -1.15300000
   O     50.83000000    42.53000000     0.64000000
   H     50.74000000    42.32000000    -0.29000000
   H     51.23000000    41.75000000     1.02000000
   O     50.96000000    45.31000000     4.37000000
   H     51.67000000    44.93000000     4.90000000
   H     50.39000000    45.74000000     5.00000000
   O     50.05000000    47.57000000     2.16000000
   H     49.44000000    48.04000000     1.58000000
   H     50.27000000    48.20000000     2.84000000
   O     49.74000000    46.24000000    -0.43300000
   H     50.10000000    46.48000000    -1.29300000
   H     49.25000000    47.02000000    -0.16300000

Ca 1.00



