%chk=loop3.cluster173.chk
%nprocshared=20
%mem=10GB
%nosave
#b3lyp/svp scf=(tight,noincore,xqc) Test 
#IOP(5/87=12) Density=Current Pop=(MK,readradii) iop(6/33=2) iop(6/42=6)

loop3.cluster173 

   0  1 
   C     96.10000000    57.33000000    31.04000000
   C     96.83000000    56.01000000    31.23000000
   O     96.39000000    55.23000000    32.08000000
   H     95.15300000    57.30200000    31.57900000
   H     96.71300000    58.14400000    31.42700000
   H     95.90900000    57.49100000    29.97900000
   N     97.83000000    55.78000000    30.37000000
   C     98.58000000    54.55000000    30.20000000
   C     99.92000000    54.54000000    30.92000000
   O    100.58000000    55.58000000    30.95000000
   C     98.60000000    54.26000000    28.70000000
   C     99.44000000    53.03000000    28.41000000
   O     99.07000000    51.90000000    28.78000000
   O    100.55000000    53.18000000    27.85000000
   H     98.21000000    56.54000000    29.83000000
   H     97.92000000    53.84000000    30.69000000
   H     99.03000000    55.04000000    28.07000000
   H     97.62000000    54.12000000    28.25000000
   N    100.24000000    53.41000000    31.55000000
   C    101.39000000    53.21000000    32.41000000
   C    102.75000000    53.43000000    31.75000000
   O    103.75000000    53.47000000    32.45000000
   C    101.24000000    51.83000000    33.04000000
   C    101.38000000    50.70000000    32.03000000
   C    100.83000000    49.34000000    32.46000000
   C     99.31000000    49.20000000    32.40000000
   N     98.93000000    47.81000000    32.69000000
   H     99.56000000    52.69000000    31.33000000
   H    101.44000000    53.92000000    33.23000000
   H    100.23000000    51.81000000    33.45000000
   H    101.93000000    51.76000000    33.88000000
   H    102.44000000    50.56000000    31.86000000
   H    100.85000000    50.89000000    31.09000000
   H    101.08000000    48.97000000    33.46000000
   H    101.20000000    48.58000000    31.77000000
   H     99.03000000    49.37000000    31.36000000
   H     98.70000000    49.92000000    32.94000000
   H     98.68000000    47.71000000    33.66000000
   H     98.11000000    47.55000000    32.16000000
   H     99.67000000    47.21000000    32.36000000
   N    102.75000000    53.67000000    30.43000000
   C    103.88000000    54.30000000    29.80000000
   C    103.54000000    55.51000000    28.94000000
   O    104.39000000    56.36000000    28.68000000
   C    104.62000000    53.30000000    28.91000000
   C    103.68000000    52.63000000    27.92000000
   O    103.27000000    53.16000000    26.86000000
   O    103.46000000    51.40000000    27.98000000
   H    101.96000000    53.49000000    29.82000000
   H    104.59000000    54.71000000    30.52000000
   H    105.21000000    52.57000000    29.45000000
   H    105.37000000    53.82000000    28.32000000
   N    102.30000000    55.57000000    28.46000000
   C    101.63000000    56.62000000    27.72000000
   C    101.85000000    56.67000000    26.21000000
   O    101.62000000    57.74000000    25.66000000
   H    101.71000000    54.77000000    28.66000000
   H    102.03000000    57.57000000    28.06000000
   H    100.61000000    56.55000000    28.08000000
   N    102.20000000    55.57000000    25.55000000
   C    102.15000000    55.38000000    24.11000000
   C    101.09000000    54.33000000    23.80000000
   O    100.83000000    53.51000000    24.68000000
   C    103.56000000    55.17000000    23.56000000
   C    103.60000000    54.24000000    22.35000000
   N    104.26000000    54.61000000    21.25000000
   O    103.30000000    53.05000000    22.42000000
   H    102.32000000    54.75000000    26.12000000
   H    101.88000000    56.32000000    23.62000000
   H    104.23000000    54.65000000    24.25000000
   H    104.03000000    56.12000000    23.33000000
   H    104.83000000    55.43000000    21.10000000
   H    104.31000000    53.90000000    20.53000000
   N    100.53000000    54.41000000    22.59000000
   C     99.25000000    53.81000000    22.27000000
   C     99.24000000    52.30000000    22.14000000
   O     98.18000000    51.69000000    22.05000000
   H    100.77000000    55.14000000    21.94000000
   H     98.81000000    54.15000000    21.33000000
   H     98.50000000    53.94000000    23.05000000
   N    100.44000000    51.72000000    22.08000000
   C    100.57000000    50.29000000    21.86000000
   C    100.48000000    49.45000000    23.13000000
   O    100.88000000    49.81000000    24.23000000
   C    101.87000000    49.98000000    21.12000000
   C    101.85000000    50.35000000    19.65000000
   C    101.18000000    49.60000000    18.68000000
   C    102.46000000    51.55000000    19.28000000
   C    101.32000000    49.95000000    17.34000000
   C    102.47000000    51.97000000    17.94000000
   C    101.89000000    51.17000000    16.92000000
   O    101.98000000    51.58000000    15.63000000
   H    101.28000000    52.27000000    22.09000000
   H     99.85000000    50.06000000    21.07000000
   H    102.04000000    48.91000000    21.21000000
   H    102.73000000    50.46000000    21.60000000
   H    100.76000000    48.66000000    19.01000000
   H    102.95000000    52.14000000    20.04000000
   H    100.76000000    49.38000000    16.62000000
   H    102.93000000    52.89000000    17.62000000
   H    102.51000000    52.36000000    15.45000000
   N     99.79000000    48.34000000    22.86000000
   C     99.35000000    47.33000000    23.81000000
   C    100.43000000    46.57000000    24.57000000
   O    101.50000000    47.13000000    24.81000000
   C     98.25000000    47.91000000    24.69000000
   C     97.97000000    47.11000000    25.96000000
   C     97.09000000    48.02000000    23.70000000
   C     96.82000000    47.74000000    26.75000000
   H     99.43000000    48.13000000    21.94000000
   H     98.78000000    46.53000000    23.34000000
   H     98.48000000    48.88000000    25.11000000
   H     98.82000000    47.14000000    26.63000000
   H     97.69000000    46.09000000    25.70000000
   H     96.18000000    48.33000000    24.20000000
   H     97.40000000    48.81000000    23.01000000
   H     96.89000000    47.08000000    23.18000000
   H     96.70000000    47.18000000    27.68000000
   H     97.01000000    48.80000000    26.88000000
   H     95.81000000    47.70000000    26.35000000
   N    100.31000000    45.28000000    24.90000000
   C    101.33000000    44.49000000    25.57000000
   C    101.37000000    42.99000000    25.34000000
   O    102.39000000    42.35000000    25.61000000
   C    101.23000000    44.80000000    27.06000000
   O     99.95000000    44.82000000    27.65000000
   H     99.44000000    44.82000000    24.67000000
   H    102.29000000    44.89000000    25.24000000
   H    101.56000000    45.83000000    27.21000000
   H    101.85000000    44.10000000    27.62000000
   H    100.01000000    44.98000000    28.60000000
   N    100.32000000    42.36000000    24.81000000
   C    100.18000000    40.93000000    24.70000000
   C    100.43000000    40.18000000    26.00000000
   O    101.35000000    39.37000000    26.07000000
   C    101.02000000    40.44000000    23.52000000
   H     99.52000000    42.93000000    24.55000000
   H     99.15000000    40.70000000    24.44000000
   H    100.47000000    40.86000000    22.68000000
   H    101.99000000    40.93000000    23.59000000
   H    101.24000000    39.38000000    23.41000000
   N     99.76000000    40.56000000    27.09000000
   C     98.65000000    41.49000000    27.21000000
   C     97.36000000    40.68000000    27.10000000
   O     97.41000000    39.46000000    27.10000000
   C     98.71000000    42.16000000    28.58000000
   H    100.10000000    40.24000000    27.99000000
   H     98.58000000    42.24000000    26.42000000
   H     98.13000000    43.08000000    28.61000000
   H     98.28000000    41.52000000    29.35000000
   H     99.74000000    42.38000000    28.84000000
   N     96.15000000    41.25000000    27.12000000
   C     95.81000000    42.65000000    27.12000000
   C     94.86000000    43.05000000    26.00000000
   O     95.24000000    43.88000000    25.17000000
   C     95.24000000    42.98000000    28.50000000
   C     94.98000000    44.48000000    28.55000000
   C     94.48000000    44.77000000    29.96000000
   O     93.24000000    44.71000000    30.16000000
   O     95.26000000    45.10000000    30.87000000
   H     95.37000000    40.60000000    27.09000000
   H     96.72000000    43.24000000    26.99000000
   H     96.01000000    42.73000000    29.23000000
   H     94.29000000    42.47000000    28.68000000
   H     94.20000000    44.82000000    27.87000000
   H     95.85000000    45.11000000    28.37000000
   N     93.74000000    42.35000000    25.85000000
   C     92.75000000    42.59000000    24.82000000
   H     91.89200000    43.10400000    25.25400000
   H     93.18400000    43.20900000    24.03500000
   H     92.42700000    41.63900000    24.39700000
   H     93.60000000    41.56000000    26.47000000
  Ca    101.52000000    51.41000000    26.17000000
   O     98.90000000    51.55000000    25.21000000
   H     98.06000000    51.14000000    24.98000000
   H     98.66000000    52.44000000    25.47000000
   O    102.68000000    48.83000000    26.47000000
   H    102.28000000    48.30000000    25.77000000
   H    103.58000000    48.99000000    26.16000000
   O    103.53000000    51.13000000    24.34000000
   H    103.39000000    51.67000000    23.56000000
   H    104.42000000    51.33000000    24.62000000
   O    100.25000000    49.76000000    27.86000000
   H     99.73000000    50.43000000    28.31000000
   H     99.92000000    48.93000000    28.20000000

Ca 1.00



