%chk=loop4.cluster147.chk
%nprocshared=20
%mem=10GB
%nosave
#b3lyp/svp scf=(tight,noincore,xqc) Test 
#IOP(5/87=12) Density=Current Pop=(MK,readradii) iop(6/33=2) iop(6/42=6)

loop4.cluster147 

   -3  1 
   C     63.29000000    59.41000000    82.92000000
   C     64.31000000    58.57000000    83.67000000
   O     65.31000000    58.07000000    83.14000000
   H     62.41500000    59.56700000    83.55100000
   H     63.73000000    60.37400000    82.66400000
   H     62.99200000    58.89200000    82.00800000
   N     63.97000000    58.27000000    84.92000000
   C     64.78000000    57.39000000    85.75000000
   C     66.17000000    57.93000000    86.04000000
   O     67.12000000    57.18000000    86.26000000
   C     64.65000000    55.94000000    85.29000000
   C     63.26000000    55.34000000    85.48000000
   O     62.51000000    55.05000000    84.53000000
   O     62.98000000    54.98000000    86.64000000
   H     63.14000000    58.66000000    85.34000000
   H     64.26000000    57.39000000    86.70000000
   H     65.26000000    55.39000000    86.00000000
   H     64.97000000    55.81000000    84.25000000
   N     66.33000000    59.25000000    86.09000000
   C     67.51000000    59.86000000    86.67000000
   C     67.03000000    60.77000000    87.80000000
   O     66.15000000    61.60000000    87.60000000
   C     68.42000000    60.54000000    85.65000000
   C     68.76000000    59.62000000    84.49000000
   C     69.67000000    61.15000000    86.29000000
   C     69.74000000    58.48000000    84.74000000
   H     65.51000000    59.84000000    86.06000000
   H     68.12000000    59.08000000    87.10000000
   H     67.79000000    61.37000000    85.34000000
   H     69.20000000    60.30000000    83.75000000
   H     67.83000000    59.30000000    84.03000000
   H     69.56000000    61.99000000    86.97000000
   H     70.23000000    60.37000000    86.81000000
   H     70.34000000    61.54000000    85.52000000
   H     70.74000000    58.90000000    84.88000000
   H     69.56000000    57.96000000    85.68000000
   H     69.63000000    57.71000000    83.98000000
   N     67.55000000    60.70000000    89.03000000
   C     68.71000000    59.98000000    89.51000000
   C     68.52000000    58.48000000    89.63000000
   O     69.57000000    57.85000000    89.46000000
   C     69.08000000    60.41000000    90.93000000
   C     69.67000000    61.81000000    90.96000000
   O     70.50000000    62.20000000    90.11000000
   O     69.26000000    62.61000000    91.83000000
   H     67.07000000    61.30000000    89.67000000
   H     69.52000000    60.13000000    88.80000000
   H     69.85000000    59.70000000    91.22000000
   H     68.19000000    60.45000000    91.56000000
   N     67.29000000    58.00000000    89.79000000
   C     66.73000000    56.67000000    89.61000000
   C     67.14000000    55.54000000    90.55000000
   O     67.70000000    55.75000000    91.62000000
   H     66.59000000    58.70000000    89.95000000
   H     67.08000000    56.43000000    88.61000000
   H     65.65000000    56.80000000    89.60000000
   N     66.97000000    54.28000000    90.14000000
   C     67.34000000    53.03000000    90.77000000
   C     68.76000000    52.72000000    90.34000000
   O     69.34000000    51.85000000    90.99000000
   C     66.31000000    51.95000000    90.45000000
   C     66.09000000    51.75000000    88.96000000
   O     67.09000000    51.45000000    88.26000000
   O     64.93000000    51.58000000    88.54000000
   H     66.38000000    54.18000000    89.32000000
   H     67.37000000    53.18000000    91.85000000
   H     65.40000000    52.25000000    90.97000000
   H     66.60000000    50.99000000    90.89000000
   N     69.40000000    53.41000000    89.39000000
   C     70.78000000    53.26000000    88.99000000
   C     71.02000000    52.30000000    87.83000000
   O     72.00000000    52.57000000    87.14000000
   H     68.90000000    54.15000000    88.91000000
   H     71.38000000    52.85000000    89.81000000
   H     71.07000000    54.24000000    88.63000000
   N     70.17000000    51.30000000    87.61000000
   C     70.53000000    50.24000000    86.68000000
   C     70.81000000    50.67000000    85.25000000
   O     71.80000000    50.27000000    84.65000000
   C     71.56000000    49.29000000    87.28000000
   C     71.15000000    48.62000000    88.59000000
   C     72.19000000    47.84000000    89.37000000
   N     71.84000000    47.09000000    90.42000000
   O     73.38000000    47.80000000    89.08000000
   H     69.30000000    51.29000000    88.13000000
   H     69.64000000    49.62000000    86.61000000
   H     72.44000000    49.88000000    87.55000000
   H     71.85000000    48.51000000    86.58000000
   H     70.42000000    47.84000000    88.34000000
   H     70.68000000    49.34000000    89.27000000
   H     70.85000000    47.06000000    90.62000000
   H     72.50000000    46.63000000    91.02000000
   N     69.98000000    51.56000000    84.69000000
   C     70.16000000    52.01000000    83.33000000
   C     69.71000000    50.99000000    82.30000000
   O     68.76000000    50.25000000    82.56000000
   C     69.46000000    53.36000000    83.14000000
   C     70.20000000    54.44000000    83.92000000
   C     69.32000000    53.91000000    81.72000000
   H     69.15000000    51.86000000    85.17000000
   H     71.23000000    52.21000000    83.24000000
   H     68.46000000    53.34000000    83.57000000
   H     69.96000000    55.45000000    83.58000000
   H     70.04000000    54.42000000    85.00000000
   H     71.26000000    54.30000000    83.71000000
   H     68.89000000    53.12000000    81.10000000
   H     68.68000000    54.79000000    81.63000000
   H     70.32000000    54.11000000    81.36000000
   N     70.31000000    50.94000000    81.11000000
   C     70.17000000    49.97000000    80.05000000
   C     69.46000000    50.49000000    78.80000000
   O     69.92000000    51.45000000    78.19000000
   C     71.54000000    49.43000000    79.68000000
   C     71.49000000    48.26000000    78.70000000
   N     70.88000000    47.17000000    79.16000000
   O     71.80000000    48.42000000    77.52000000
   H     70.85000000    51.75000000    80.84000000
   H     69.54000000    49.17000000    80.44000000
   H     72.04000000    49.12000000    80.59000000
   H     72.10000000    50.27000000    79.27000000
   H     70.55000000    46.99000000    80.10000000
   H     70.72000000    46.44000000    78.48000000
   N     68.55000000    49.68000000    78.27000000
   C     67.89000000    49.84000000    76.98000000
   C     66.43000000    49.43000000    77.01000000
   O     65.86000000    48.87000000    76.07000000
   C     68.69000000    49.09000000    75.92000000
   C     68.40000000    49.51000000    74.50000000
   C     68.89000000    50.75000000    74.06000000
   C     67.88000000    48.64000000    73.54000000
   C     68.84000000    51.19000000    72.74000000
   C     67.83000000    49.01000000    72.19000000
   C     68.30000000    50.29000000    71.80000000
   O     68.29000000    50.65000000    70.49000000
   H     68.13000000    48.92000000    78.78000000
   H     67.87000000    50.90000000    76.74000000
   H     68.55000000    48.01000000    76.04000000
   H     69.74000000    49.24000000    76.16000000
   H     69.27000000    51.44000000    74.80000000
   H     67.64000000    47.63000000    73.84000000
   H     69.17000000    52.19000000    72.47000000
   H     67.40000000    48.39000000    71.42000000
   H     68.17000000    49.85000000    69.97000000
   N     65.73000000    49.71000000    78.11000000
   C     64.36000000    49.30000000    78.33000000
   C     63.34000000    49.99000000    77.43000000
   O     62.43000000    49.31000000    76.95000000
   C     64.06000000    49.51000000    79.81000000
   C     62.63000000    49.05000000    80.06000000
   C     62.24000000    49.31000000    81.51000000
   O     61.37000000    50.16000000    81.77000000
   O     62.54000000    48.47000000    82.39000000
   H     66.18000000    50.16000000    78.89000000
   H     64.38000000    48.21000000    78.24000000
   H     64.27000000    50.54000000    80.07000000
   H     64.74000000    48.97000000    80.47000000
   H     62.55000000    47.98000000    79.86000000
   H     61.94000000    49.67000000    79.49000000
   N     63.45000000    51.30000000    77.20000000
   C     64.19000000    52.33000000    77.89000000
   C     65.29000000    53.05000000    77.12000000
   O     65.63000000    52.78000000    75.97000000
   C     63.16000000    53.34000000    78.38000000
   C     61.98000000    52.80000000    79.19000000
   C     60.88000000    53.84000000    79.34000000
   O     60.34000000    53.94000000    80.46000000
   O     60.50000000    54.54000000    78.38000000
   H     62.90000000    51.66000000    76.43000000
   H     64.69000000    51.85000000    78.73000000
   H     62.77000000    53.81000000    77.47000000
   H     63.59000000    54.11000000    79.01000000
   H     62.36000000    52.58000000    80.19000000
   H     61.48000000    51.92000000    78.78000000
   N     65.89000000    54.01000000    77.83000000
   C     66.90000000    54.99000000    77.51000000
   H     67.80200000    54.48300000    77.16700000
   H     66.53200000    55.64800000    76.72300000
   H     67.13000000    55.57900000    78.39800000
   H     65.66000000    53.97000000    78.81000000
  Ca     60.81000000    55.13000000    82.67000000
   O     62.19000000    52.71000000    82.68000000
   H     61.85000000    51.82000000    82.62000000
   H     63.04000000    52.62000000    83.10000000
   O     59.68000000    53.31000000    84.33000000
   H     60.13000000    53.21000000    85.16000000
   H     59.36000000    52.43000000    84.12000000
   O     62.68000000    55.95000000    81.22000000
   H     62.50000000    56.53000000    80.47000000
   H     63.63000000    55.98000000    81.33000000

Ca 1.00



