%chk=loop4.cluster130.chk
%nprocshared=20
%mem=10GB
%nosave
#b3lyp/svp scf=(tight,noincore,xqc) Test 
#IOP(5/87=12) Density=Current Pop=(MK,readradii) iop(6/33=2) iop(6/42=6)

loop4.cluster130 

   -3  1 
   C     70.55000000    51.76000000    43.93000000
   C     70.02000000    51.60000000    45.35000000
   O     69.12000000    52.34000000    45.73000000
   H     71.57400000    51.39100000    43.88100000
   H     69.92600000    51.19000000    43.24200000
   H     70.53100000    52.81300000    43.65100000
   N     70.61000000    50.62000000    46.03000000
   C     70.39000000    50.30000000    47.43000000
   C     70.93000000    51.40000000    48.33000000
   O     72.13000000    51.66000000    48.25000000
   C     71.02000000    48.97000000    47.82000000
   C     70.59000000    48.42000000    49.17000000
   O     69.77000000    49.04000000    49.88000000
   O     71.10000000    47.33000000    49.52000000
   H     71.23000000    50.02000000    45.50000000
   H     69.33000000    50.14000000    47.64000000
   H     72.11000000    49.00000000    47.81000000
   H     70.77000000    48.17000000    47.12000000
   N     70.17000000    51.88000000    49.32000000
   C     70.54000000    52.99000000    50.17000000
   C     70.86000000    52.47000000    51.56000000
   O     71.39000000    53.18000000    52.41000000
   C     69.39000000    54.00000000    50.10000000
   C     69.14000000    54.56000000    48.71000000
   C     69.63000000    55.18000000    51.04000000
   C     68.16000000    55.70000000    48.42000000
   H     69.21000000    51.59000000    49.45000000
   H     71.49000000    53.42000000    49.85000000
   H     68.47000000    53.50000000    50.42000000
   H     68.78000000    53.72000000    48.12000000
   H     70.10000000    54.92000000    48.35000000
   H     68.83000000    55.91000000    51.01000000
   H     69.73000000    54.91000000    52.09000000
   H     70.56000000    55.66000000    50.74000000
   H     67.18000000    55.36000000    48.76000000
   H     68.48000000    56.63000000    48.88000000
   H     68.07000000    55.93000000    47.36000000
   N     70.70000000    51.17000000    51.83000000
   C     70.79000000    50.64000000    53.18000000
   C     71.74000000    49.45000000    53.27000000
   O     72.35000000    49.31000000    54.32000000
   C     69.49000000    50.18000000    53.82000000
   C     68.47000000    49.43000000    52.97000000
   O     67.45000000    49.99000000    52.52000000
   O     68.81000000    48.29000000    52.60000000
   H     70.29000000    50.58000000    51.13000000
   H     71.14000000    51.47000000    53.79000000
   H     69.00000000    51.13000000    54.02000000
   H     69.54000000    49.51000000    54.68000000
   N     71.70000000    48.50000000    52.33000000
   C     72.60000000    47.36000000    52.30000000
   C     71.94000000    45.99000000    52.40000000
   O     72.61000000    44.98000000    52.63000000
   H     70.94000000    48.57000000    51.67000000
   H     73.32000000    47.35000000    53.12000000
   H     73.10000000    47.48000000    51.34000000
   N     70.61000000    45.86000000    52.41000000
   C     69.92000000    44.60000000    52.25000000
   C     70.24000000    43.90000000    50.93000000
   O     69.94000000    42.71000000    50.88000000
   C     68.42000000    44.67000000    52.48000000
   C     67.63000000    45.54000000    51.50000000
   O     66.39000000    45.64000000    51.59000000
   O     68.23000000    46.07000000    50.54000000
   H     70.09000000    46.72000000    52.28000000
   H     70.42000000    43.97000000    52.99000000
   H     68.28000000    44.86000000    53.54000000
   H     68.02000000    43.66000000    52.33000000
   N     70.86000000    44.53000000    49.93000000
   C     71.08000000    43.86000000    48.66000000
   C     69.91000000    44.13000000    47.72000000
   O     69.79000000    43.37000000    46.76000000
   H     71.14000000    45.50000000    50.00000000
   H     71.16000000    42.79000000    48.80000000
   H     71.93000000    44.25000000    48.11000000
   N     69.01000000    45.06000000    48.02000000
   C     67.76000000    45.17000000    47.30000000
   C     67.29000000    46.61000000    47.20000000
   O     67.70000000    47.49000000    47.96000000
   C     66.63000000    44.43000000    48.00000000
   C     66.90000000    42.99000000    48.43000000
   C     65.71000000    42.33000000    49.11000000
   N     65.90000000    41.07000000    49.49000000
   O     64.75000000    43.00000000    49.49000000
   H     69.21000000    45.50000000    48.91000000
   H     67.94000000    44.74000000    46.31000000
   H     65.72000000    44.43000000    47.39000000
   H     66.34000000    45.06000000    48.84000000
   H     67.76000000    43.09000000    49.10000000
   H     67.18000000    42.46000000    47.52000000
   H     66.62000000    40.53000000    49.03000000
   H     65.24000000    40.58000000    50.08000000
   N     66.34000000    46.91000000    46.32000000
   C     65.79000000    48.25000000    46.19000000
   C     64.30000000    48.22000000    46.51000000
   O     63.65000000    47.46000000    45.79000000
   C     65.99000000    48.75000000    44.76000000
   C     65.24000000    50.04000000    44.44000000
   C     67.47000000    48.83000000    44.43000000
   H     65.95000000    46.19000000    45.73000000
   H     66.22000000    49.03000000    46.81000000
   H     65.57000000    48.04000000    44.05000000
   H     64.15000000    49.93000000    44.41000000
   H     65.42000000    50.74000000    45.26000000
   H     65.47000000    50.48000000    43.47000000
   H     68.00000000    49.53000000    45.07000000
   H     67.95000000    47.85000000    44.42000000
   H     67.61000000    49.17000000    43.40000000
   N     63.72000000    48.90000000    47.50000000
   C     62.31000000    49.16000000    47.68000000
   C     61.91000000    50.45000000    46.98000000
   O     62.80000000    51.25000000    46.69000000
   C     62.01000000    49.03000000    49.17000000
   C     61.91000000    50.38000000    49.87000000
   N     62.89000000    50.75000000    50.70000000
   O     60.96000000    51.09000000    49.58000000
   H     64.33000000    49.37000000    48.15000000
   H     61.66000000    48.45000000    47.17000000
   H     62.76000000    48.39000000    49.63000000
   H     61.04000000    48.55000000    49.32000000
   H     63.71000000    50.18000000    50.81000000
   H     62.84000000    51.63000000    51.21000000
   N     60.62000000    50.75000000    46.79000000
   C     60.27000000    51.88000000    45.95000000
   C     60.81000000    53.22000000    46.43000000
   O     61.10000000    54.14000000    45.66000000
   C     58.75000000    51.91000000    45.78000000
   C     58.25000000    53.01000000    44.87000000
   C     58.11000000    52.82000000    43.50000000
   C     57.76000000    54.20000000    45.43000000
   C     57.55000000    53.81000000    42.69000000
   C     57.09000000    55.16000000    44.66000000
   C     57.05000000    55.00000000    43.27000000
   O     56.30000000    55.79000000    42.45000000
   H     59.93000000    50.22000000    47.29000000
   H     60.77000000    51.74000000    44.99000000
   H     58.24000000    52.09000000    46.73000000
   H     58.35000000    50.97000000    45.42000000
   H     58.41000000    51.87000000    43.07000000
   H     57.80000000    54.20000000    46.51000000
   H     57.32000000    53.61000000    41.65000000
   H     56.64000000    56.06000000    45.07000000
   H     55.95000000    56.53000000    42.95000000
   N     60.91000000    53.44000000    47.74000000
   C     61.34000000    54.71000000    48.26000000
   C     62.84000000    54.96000000    48.16000000
   O     63.32000000    56.06000000    48.41000000
   C     60.96000000    54.81000000    49.74000000
   C     59.46000000    54.88000000    50.01000000
   C     59.24000000    55.70000000    51.28000000
   O     59.96000000    55.48000000    52.28000000
   O     58.28000000    56.49000000    51.33000000
   H     60.62000000    52.74000000    48.42000000
   H     60.95000000    55.55000000    47.69000000
   H     61.44000000    55.65000000    50.25000000
   H     61.32000000    53.91000000    50.23000000
   H     59.04000000    53.90000000    50.20000000
   H     58.91000000    55.36000000    49.20000000
   N     63.56000000    53.97000000    47.63000000
   C     64.93000000    53.95000000    47.14000000
   C     64.95000000    54.08000000    45.63000000
   O     65.67000000    54.89000000    45.05000000
   C     65.73000000    52.73000000    47.59000000
   C     65.76000000    52.41000000    49.08000000
   C     66.31000000    51.01000000    49.28000000
   O     67.50000000    50.75000000    49.55000000
   O     65.51000000    50.04000000    49.22000000
   H     63.00000000    53.14000000    47.50000000
   H     65.46000000    54.84000000    47.48000000
   H     66.74000000    52.86000000    47.18000000
   H     65.24000000    51.88000000    47.13000000
   H     64.72000000    52.39000000    49.43000000
   H     66.32000000    53.19000000    49.59000000
   N     64.07000000    53.34000000    44.93000000
   C     63.86000000    53.44000000    43.50000000
   H     63.14300000    54.23400000    43.29300000
   H     64.80600000    53.66800000    43.00800000
   H     63.47200000    52.49400000    43.12200000
   H     63.39000000    52.81000000    45.45000000
  Ca     67.30000000    48.35000000    50.42000000
   O     65.05000000    47.10000000    49.73000000
   H     64.10000000    47.02000000    49.68000000
   H     65.34000000    46.28000000    50.12000000
   O     64.84000000    49.22000000    52.28000000
   H     65.51000000    49.80000000    52.64000000
   H     64.02000000    49.53000000    52.67000000

Ca 1.00



