%chk=loop2.cluster106.chk
%nprocshared=20
%mem=10GB
%nosave
#b3lyp/svp scf=(tight,noincore,xqc) Test 
#IOP(5/87=12) Density=Current Pop=(MK,readradii) iop(6/33=2) iop(6/42=6)

loop2.cluster106 

   -2  1 
   C     56.72000000    26.77000000    12.99000000
   C     56.94000000    27.11000000    11.52000000
   O     56.18000000    26.73000000    10.64000000
   H     55.67000000    26.52500000    13.15300000
   H     57.33800000    25.91500000    13.26200000
   H     56.99200000    27.62700000    13.60600000
   N     58.03000000    27.81000000    11.21000000
   C     58.37000000    28.18000000     9.85000000
   C     58.83000000    27.01000000     8.99000000
   O     58.39000000    26.98000000     7.84000000
   C     59.27000000    29.41000000     9.76000000
   C     59.29000000    30.00000000     8.35000000
   O     60.37000000    30.40000000     7.86000000
   O     58.22000000    30.16000000     7.72000000
   H     58.60000000    28.22000000    11.94000000
   H     57.46000000    28.59000000     9.41000000
   H     60.28000000    29.08000000    10.01000000
   H     58.90000000    30.13000000    10.49000000
   N     59.61000000    26.08000000     9.53000000
   C     60.01000000    24.77000000     9.04000000
   C     58.85000000    23.84000000     8.70000000
   O     59.03000000    22.81000000     8.05000000
   C     61.11000000    24.89000000     8.00000000
   H     59.90000000    26.31000000    10.47000000
   H     60.58000000    24.29000000     9.84000000
   H     61.89000000    25.48000000     8.48000000
   H     61.54000000    23.92000000     7.77000000
   H     60.77000000    25.35000000     7.07000000
   N     57.63000000    24.25000000     9.04000000
   C     56.40000000    23.52000000     8.77000000
   C     56.22000000    23.15000000     7.30000000
   O     55.25000000    22.48000000     6.95000000
   C     56.29000000    22.32000000     9.69000000
   C     54.91000000    21.67000000     9.69000000
   O     54.87000000    20.42000000     9.70000000
   O     53.89000000    22.37000000     9.87000000
   H     57.56000000    25.04000000     9.66000000
   H     55.48000000    24.09000000     8.89000000
   H     56.44000000    22.68000000    10.71000000
   H     57.13000000    21.64000000     9.58000000
   N     57.01000000    23.76000000     6.42000000
   C     56.86000000    23.73000000     4.98000000
   C     57.81000000    24.69000000     4.27000000
   O     58.66000000    25.39000000     4.80000000
   H     57.65000000    24.44000000     6.80000000
   H     55.81000000    23.88000000     4.74000000
   H     57.08000000    22.71000000     4.67000000
   N     57.55000000    24.78000000     2.96000000
   C     58.37000000    25.54000000     2.03000000
   C     57.58000000    26.81000000     1.74000000
   O     56.35000000    26.76000000     1.67000000
   C     58.56000000    24.65000000     0.81000000
   C     59.26000000    25.50000000    -0.25000000
   N     60.53000000    25.88000000    -0.05000000
   O     58.64000000    25.80000000    -1.26000000
   H     56.80000000    24.25000000     2.54000000
   H     59.37000000    25.69000000     2.43000000
   H     57.57000000    24.44000000     0.38000000
   H     59.24000000    23.81000000     0.89000000
   H     60.98000000    25.81000000     0.85000000
   H     61.03000000    26.43000000    -0.72000000
   N     58.20000000    27.99000000     1.77000000
   C     57.53000000    29.27000000     1.65000000
   C     57.07000000    29.69000000     3.04000000
   O     57.76000000    30.50000000     3.65000000
   H     59.21000000    28.03000000     1.75000000
   H     56.65000000    29.16000000     1.01000000
   H     58.11000000    30.06000000     1.18000000
   N     56.02000000    29.09000000     3.59000000
   C     55.83000000    28.96000000     5.03000000
   C     54.65000000    29.77000000     5.57000000
   O     53.77000000    30.16000000     4.81000000
   C     55.55000000    27.49000000     5.32000000
   C     55.31000000    27.07000000     6.77000000
   O     54.42000000    27.02000000     4.63000000
   H     55.57000000    28.36000000     3.06000000
   H     56.65000000    29.35000000     5.62000000
   H     56.40000000    26.95000000     4.90000000
   H     54.23000000    26.18000000     5.07000000
   H     55.88000000    27.72000000     7.43000000
   H     54.26000000    27.22000000     7.02000000
   H     55.72000000    26.07000000     6.88000000
   N     54.66000000    30.05000000     6.87000000
   C     53.66000000    30.78000000     7.63000000
   C     52.89000000    29.82000000     8.54000000
   O     53.31000000    28.69000000     8.78000000
   C     54.23000000    32.01000000     8.33000000
   C     53.18000000    32.96000000     8.90000000
   C     55.37000000    31.63000000     9.26000000
   C     53.81000000    34.30000000     9.29000000
   H     55.52000000    29.83000000     7.35000000
   H     52.98000000    31.17000000     6.88000000
   H     54.69000000    32.64000000     7.56000000
   H     52.64000000    32.61000000     9.77000000
   H     52.49000000    33.10000000     8.07000000
   H     55.72000000    32.58000000     9.67000000
   H     55.03000000    30.89000000     9.98000000
   H     56.20000000    31.20000000     8.70000000
   H     52.97000000    34.89000000     9.64000000
   H     54.51000000    34.19000000    10.11000000
   H     54.35000000    34.64000000     8.40000000
   N     51.80000000    30.30000000     9.13000000
   C     50.68000000    29.49000000     9.57000000
   C     49.44000000    30.37000000     9.54000000
   O     49.37000000    31.31000000     8.75000000
   C     50.93000000    28.77000000    10.89000000
   C     50.28000000    27.39000000    10.92000000
   O     50.94000000    26.34000000    10.74000000
   O     49.08000000    27.30000000    11.25000000
   H     51.45000000    31.23000000     8.96000000
   H     50.56000000    28.67000000     8.86000000
   H     50.52000000    29.44000000    11.65000000
   H     52.00000000    28.62000000    11.03000000
   N     48.46000000    29.96000000    10.35000000
   C     47.12000000    30.49000000    10.28000000
   C     46.08000000    29.51000000    10.81000000
   O     45.29000000    29.10000000     9.96000000
   C     47.04000000    31.90000000    10.86000000
   C     45.66000000    32.51000000    10.71000000
   C     45.14000000    32.73000000     9.44000000
   C     44.85000000    32.69000000    11.84000000
   C     43.80000000    33.12000000     9.26000000
   C     43.54000000    33.14000000    11.65000000
   C     42.98000000    33.32000000    10.38000000
   H     48.62000000    29.13000000    10.91000000
   H     46.92000000    30.73000000     9.24000000
   H     47.75000000    32.54000000    10.33000000
   H     47.38000000    31.96000000    11.90000000
   H     45.78000000    32.68000000     8.57000000
   H     45.23000000    32.47000000    12.82000000
   H     43.25000000    33.08000000     8.34000000
   H     43.01000000    33.32000000    12.57000000
   H     41.91000000    33.39000000    10.24000000
   N     46.06000000    28.94000000    12.02000000
   C     46.25000000    29.63000000    13.28000000
   C     47.41000000    29.18000000    14.15000000
   O     47.52000000    29.73000000    15.24000000
   C     44.95000000    29.46000000    14.06000000
   C     44.83000000    27.95000000    13.85000000
   C     45.24000000    27.81000000    12.39000000
   H     46.34000000    30.69000000    13.05000000
   H     45.03000000    29.72000000    15.11000000
   H     44.12000000    30.03000000    13.63000000
   H     45.55000000    27.45000000    14.50000000
   H     43.81000000    27.59000000    14.00000000
   H     45.82000000    26.88000000    12.36000000
   H     44.32000000    27.90000000    11.81000000
   N     48.32000000    28.26000000    13.81000000
   C     49.32000000    27.68000000    14.69000000
   C     50.61000000    28.49000000    14.79000000
   O     51.64000000    27.99000000    15.24000000
   C     49.54000000    26.20000000    14.41000000
   C     48.37000000    25.39000000    14.96000000
   C     48.29000000    25.31000000    16.48000000
   O     47.52000000    26.03000000    17.14000000
   O     49.04000000    24.52000000    17.10000000
   H     48.22000000    27.91000000    12.87000000
   H     48.89000000    27.78000000    15.69000000
   H     50.46000000    25.87000000    14.90000000
   H     49.55000000    26.05000000    13.33000000
   H     48.42000000    24.38000000    14.57000000
   H     47.42000000    25.80000000    14.59000000
   N     50.52000000    29.78000000    14.48000000
   C     51.65000000    30.68000000    14.59000000
   H     52.48600000    30.28500000    14.01300000
   H     51.37300000    31.66100000    14.20300000
   H     51.94300000    30.77100000    15.63600000
   H     49.67000000    30.16000000    14.09000000
  Ca     52.05000000    24.28000000     9.88000000
   O     49.69000000    22.96000000    10.10000000
   H     49.21000000    22.18000000     9.83000000
   H     49.06000000    23.46000000    10.62000000
   O     53.96000000    26.06000000     9.72000000
   H     53.59000000    26.85000000     9.32000000
   H     54.80000000    26.33000000    10.08000000
   O     52.73000000    23.91000000    12.62000000
   H     52.72000000    22.99000000    12.89000000
   H     52.91000000    24.39000000    13.43000000
   O     52.05000000    22.60000000     7.66000000
   H     51.38000000    22.60000000     6.98000000
   H     52.40000000    21.71000000     7.65000000
   O     51.06000000    25.71000000     7.60000000
   H     51.39000000    26.48000000     7.13000000
   H     50.11000000    25.76000000     7.50000000

Ca 1.00



