%chk=loop1.cluster25.chk
%nprocshared=20
%mem=10GB
%nosave
#b3lyp/svp scf=(tight,noincore,xqc) Test 
#IOP(5/87=12) Density=Current Pop=(MK,readradii) iop(6/33=2) iop(6/42=6)

loop1.cluster25 

   0  1 
   C     79.44000000    82.75000000    86.04000000
   C     80.82000000    83.34000000    86.25000000
   O     81.12000000    84.50000000    85.98000000
   H     78.75000000    83.53800000    85.73800000
   H     79.48400000    81.98900000    85.26100000
   H     79.09200000    82.29900000    86.96900000
   N     81.73000000    82.51000000    86.78000000
   C     83.14000000    82.78000000    86.96000000
   C     84.05000000    82.70000000    85.74000000
   O     85.24000000    82.98000000    85.86000000
   C     83.64000000    81.82000000    88.04000000
   C     83.51000000    80.33000000    87.76000000
   O     84.52000000    79.63000000    87.96000000
   O     82.46000000    79.82000000    87.31000000
   H     81.41000000    81.57000000    86.91000000
   H     83.27000000    83.82000000    87.25000000
   H     83.05000000    81.96000000    88.95000000
   H     84.67000000    82.04000000    88.33000000
   N     83.53000000    82.36000000    84.56000000
   C     84.26000000    82.10000000    83.34000000
   C     84.36000000    83.25000000    82.34000000
   O     83.34000000    83.87000000    82.04000000
   C     83.82000000    80.76000000    82.76000000
   C     83.71000000    79.53000000    83.66000000
   C     85.01000000    79.07000000    84.33000000
   C     84.93000000    77.75000000    85.10000000
   N     83.89000000    77.71000000    86.14000000
   H     82.52000000    82.43000000    84.51000000
   H     85.31000000    81.98000000    83.63000000
   H     84.45000000    80.48000000    81.91000000
   H     82.80000000    80.96000000    82.45000000
   H     83.13000000    78.81000000    83.09000000
   H     83.08000000    79.84000000    84.48000000
   H     85.23000000    79.93000000    84.95000000
   H     85.81000000    78.90000000    83.61000000
   H     85.94000000    77.57000000    85.45000000
   H     84.83000000    76.92000000    84.41000000
   H     83.77000000    76.79000000    86.54000000
   H     84.09000000    78.36000000    86.89000000
   H     83.06000000    78.04000000    85.66000000
   N     85.55000000    83.51000000    81.79000000
   C     86.88000000    83.12000000    82.20000000
   C     87.89000000    84.22000000    81.93000000
   O     88.46000000    84.30000000    80.85000000
   C     87.28000000    81.84000000    81.47000000
   C     88.65000000    81.34000000    81.90000000
   O     89.30000000    80.62000000    81.11000000
   O     89.09000000    81.68000000    83.02000000
   H     85.52000000    84.34000000    81.22000000
   H     86.81000000    82.99000000    83.29000000
   H     87.30000000    82.02000000    80.40000000
   H     86.55000000    81.04000000    81.62000000
   N     87.96000000    85.32000000    82.70000000
   C     87.34000000    85.53000000    83.99000000
   C     87.10000000    87.00000000    84.27000000
   O     87.92000000    87.84000000    83.90000000
   H     88.58000000    86.01000000    82.30000000
   H     87.90000000    85.04000000    84.79000000
   H     86.44000000    84.92000000    84.07000000
   N     86.00000000    87.45000000    84.89000000
   C     84.89000000    86.65000000    85.38000000
   C     84.18000000    87.23000000    86.59000000
   O     84.67000000    88.13000000    87.27000000
   C     84.04000000    86.39000000    84.15000000
   C     83.44000000    87.60000000    83.45000000
   O     83.37000000    87.65000000    82.20000000
   O     82.99000000    88.52000000    84.16000000
   H     85.87000000    88.45000000    84.95000000
   H     85.35000000    85.74000000    85.77000000
   H     83.24000000    85.68000000    84.36000000
   H     84.78000000    85.98000000    83.47000000
   N     83.01000000    86.67000000    86.90000000
   C     82.03000000    87.02000000    87.91000000
   C     80.85000000    87.87000000    87.44000000
   O     80.13000000    88.34000000    88.31000000
   H     82.85000000    85.79000000    86.42000000
   H     82.48000000    87.70000000    88.63000000
   H     81.62000000    86.11000000    88.34000000
   N     80.60000000    88.07000000    86.14000000
   C     79.50000000    88.80000000    85.55000000
   C     78.43000000    87.97000000    84.84000000
   O     78.73000000    87.13000000    84.00000000
   C     80.07000000    89.87000000    84.62000000
   C     78.96000000    90.82000000    84.18000000
   O     80.64000000    89.40000000    83.41000000
   H     81.14000000    87.62000000    85.41000000
   H     79.01000000    89.33000000    86.36000000
   H     80.76000000    90.39000000    85.28000000
   H     81.55000000    89.17000000    83.61000000
   H     78.13000000    90.37000000    83.64000000
   H     78.49000000    91.30000000    85.04000000
   H     79.34000000    91.62000000    83.55000000
   N     77.16000000    88.19000000    85.16000000
   C     76.03000000    87.57000000    84.50000000
   C     75.09000000    88.64000000    83.95000000
   O     74.43000000    89.38000000    84.67000000
   C     75.27000000    86.62000000    85.42000000
   C     74.05000000    86.00000000    84.76000000
   C     74.88000000    87.07000000    86.83000000
   C     74.19000000    85.52000000    83.31000000
   H     76.90000000    88.90000000    85.83000000
   H     76.38000000    86.94000000    83.68000000
   H     75.99000000    85.82000000    85.59000000
   H     73.32000000    86.81000000    84.78000000
   H     73.69000000    85.22000000    85.44000000
   H     74.17000000    86.36000000    87.24000000
   H     75.73000000    87.19000000    87.49000000
   H     74.45000000    88.07000000    86.77000000
   H     74.14000000    86.44000000    82.72000000
   H     75.17000000    85.04000000    83.23000000
   H     73.29000000    84.96000000    83.05000000
   N     75.29000000    88.92000000    82.65000000
   C     74.69000000    89.95000000    81.82000000
   C     73.81000000    89.37000000    80.73000000
   O     72.91000000    90.07000000    80.26000000
   C     75.77000000    90.78000000    81.14000000
   C     75.37000000    91.86000000    80.13000000
   O     76.64000000    89.91000000    80.45000000
   H     76.00000000    88.35000000    82.23000000
   H     74.06000000    90.60000000    82.43000000
   H     76.26000000    91.26000000    81.99000000
   H     77.27000000    90.47000000    79.99000000
   H     74.82000000    92.65000000    80.63000000
   H     76.28000000    92.36000000    79.80000000
   H     74.77000000    91.44000000    79.32000000
   N     74.18000000    88.19000000    80.22000000
   C     73.71000000    87.58000000    78.99000000
   C     74.16000000    88.36000000    77.77000000
   O     74.66000000    89.49000000    77.80000000
   C     72.23000000    87.23000000    79.06000000
   C     71.76000000    86.62000000    80.37000000
   O     71.80000000    86.42000000    77.98000000
   H     74.95000000    87.78000000    80.72000000
   H     74.21000000    86.61000000    78.92000000
   H     71.64000000    88.14000000    78.99000000
   H     71.29000000    85.69000000    78.31000000
   H     71.81000000    87.39000000    81.14000000
   H     70.75000000    86.25000000    80.17000000
   H     72.35000000    85.76000000    80.70000000
   N     74.16000000    87.65000000    76.64000000
   C     74.46000000    88.24000000    75.35000000
   C     75.84000000    87.87000000    74.80000000
   O     76.33000000    88.66000000    73.99000000
   C     73.33000000    87.76000000    74.45000000
   C     72.35000000    88.87000000    74.06000000
   C     71.59000000    89.50000000    75.23000000
   C     70.66000000    90.53000000    74.59000000
   N     69.70000000    91.02000000    75.60000000
   H     73.73000000    86.74000000    76.65000000
   H     74.36000000    89.32000000    75.37000000
   H     72.80000000    86.96000000    74.96000000
   H     73.76000000    87.30000000    73.56000000
   H     71.65000000    88.47000000    73.33000000
   H     72.93000000    89.62000000    73.53000000
   H     72.24000000    89.89000000    76.01000000
   H     71.01000000    88.66000000    75.63000000
   H     70.08000000    90.19000000    73.74000000
   H     71.19000000    91.41000000    74.24000000
   H     69.20000000    91.84000000    75.31000000
   H     68.96000000    90.35000000    75.71000000
   H     70.11000000    91.16000000    76.51000000
   N     76.61000000    86.87000000    75.22000000
   C     76.32000000    85.62000000    75.91000000
   C     75.01000000    84.87000000    75.72000000
   O     74.42000000    84.53000000    76.75000000
   C     76.93000000    85.80000000    77.30000000
   C     78.45000000    85.92000000    77.32000000
   C     78.86000000    86.45000000    78.69000000
   O     79.55000000    85.78000000    79.49000000
   O     78.37000000    87.50000000    79.17000000
   H     77.58000000    87.00000000    74.99000000
   H     77.00000000    84.87000000    75.51000000
   H     76.64000000    84.90000000    77.84000000
   H     76.44000000    86.72000000    77.63000000
   H     78.81000000    86.59000000    76.55000000
   H     78.85000000    84.92000000    77.15000000
   N     74.45000000    84.76000000    74.51000000
   C     73.16000000    84.14000000    74.26000000
   H     72.43800000    84.90600000    73.97600000
   H     73.25500000    83.41400000    73.45200000
   H     72.81700000    83.63600000    75.16400000
   H     74.90000000    85.19000000    73.72000000
  Ca     81.88000000    85.75000000    80.85000000
   O     82.35000000    87.83000000    79.30000000
   H     83.01000000    88.29000000    79.82000000
   H     81.96000000    88.51000000    78.76000000
   O     82.31000000    84.11000000    78.79000000
   H     82.75000000    83.28000000    78.65000000
   H     82.29000000    84.52000000    77.92000000
   O     80.50000000    83.40000000    81.01000000
   H     80.81000000    82.99000000    81.82000000
   H     80.73000000    82.76000000    80.32000000
   O     84.63000000    85.81000000    79.83000000
   H     85.09000000    86.65000000    79.81000000
   H     84.71000000    85.47000000    78.94000000
   O     80.69000000    85.37000000    83.28000000
   H     80.87000000    84.83000000    84.04000000
   H     79.80000000    85.69000000    83.42000000
   O     80.11000000    87.58000000    81.44000000
   H     79.67000000    88.09000000    82.12000000
   H     79.51000000    87.59000000    80.70000000

Ca 1.00



