%chk=loop3.cluster179.chk
%nprocshared=20
%mem=10GB
%nosave
#b3lyp/svp scf=(tight,noincore,xqc) Test 
#IOP(5/87=12) Density=Current Pop=(MK,readradii) iop(6/33=2) iop(6/42=6)

loop3.cluster179 

   0  1 
   C    100.35000000   -18.01000000    60.86000000
   C     99.70000000   -19.30000000    60.37000000
   O     98.50000000   -19.32000000    60.13000000
   H    101.28700000   -17.85000000    60.32600000
   H     99.67900000   -17.17100000    60.67500000
   H    100.55000000   -18.08700000    61.92900000
   N    100.47000000   -20.37000000    60.21000000
   C     99.93000000   -21.66000000    59.81000000
   C     99.29000000   -22.34000000    61.01000000
   O     99.81000000   -22.51000000    62.11000000
   C    101.05000000   -22.54000000    59.27000000
   C    100.51000000   -23.72000000    58.46000000
   O     99.69000000   -23.56000000    57.53000000
   O    100.85000000   -24.88000000    58.76000000
   H    101.47000000   -20.37000000    60.38000000
   H     99.18000000   -21.51000000    59.04000000
   H    101.72000000   -22.89000000    60.06000000
   H    101.67000000   -21.96000000    58.59000000
   N     97.99000000   -22.50000000    60.76000000
   C     96.99000000   -23.00000000    61.68000000
   C     97.06000000   -24.51000000    61.91000000
   O     96.22000000   -25.06000000    62.61000000
   C     95.60000000   -22.56000000    61.24000000
   C     95.46000000   -21.14000000    60.72000000
   C     95.78000000   -20.04000000    61.73000000
   C     95.67000000   -18.60000000    61.23000000
   N     95.58000000   -17.64000000    62.35000000
   H     97.75000000   -22.39000000    59.78000000
   H     97.23000000   -22.49000000    62.62000000
   H     94.94000000   -22.74000000    62.08000000
   H     95.24000000   -23.12000000    60.37000000
   H     94.40000000   -21.10000000    60.47000000
   H     96.12000000   -20.94000000    59.87000000
   H     96.77000000   -20.19000000    62.15000000
   H     95.05000000   -20.10000000    62.53000000
   H     94.73000000   -18.62000000    60.67000000
   H     96.53000000   -18.41000000    60.59000000
   H     94.69000000   -17.69000000    62.81000000
   H     96.30000000   -17.89000000    63.02000000
   H     95.70000000   -16.68000000    62.07000000
   N     98.11000000   -25.19000000    61.44000000
   C     98.39000000   -26.56000000    61.81000000
   C     99.85000000   -26.85000000    62.14000000
   O    100.08000000   -27.67000000    63.03000000
   C     97.73000000   -27.51000000    60.81000000
   C     98.20000000   -27.21000000    59.40000000
   O     99.42000000   -27.36000000    59.15000000
   O     97.38000000   -26.78000000    58.56000000
   H     98.81000000   -24.73000000    60.88000000
   H     97.89000000   -26.66000000    62.77000000
   H     96.68000000   -27.25000000    60.82000000
   H     97.92000000   -28.55000000    61.08000000
   N    100.86000000   -26.26000000    61.50000000
   C    102.26000000   -26.53000000    61.79000000
   C    103.16000000   -27.15000000    60.73000000
   O    104.36000000   -26.91000000    60.75000000
   H    100.62000000   -25.63000000    60.75000000
   H    102.32000000   -27.14000000    62.69000000
   H    102.77000000   -25.58000000    61.98000000
   N    102.55000000   -27.92000000    59.83000000
   C    103.32000000   -28.53000000    58.75000000
   C    102.83000000   -28.14000000    57.36000000
   O    101.66000000   -27.82000000    57.18000000
   C    103.57000000   -29.99000000    59.10000000
   C    104.77000000   -30.53000000    58.33000000
   N    105.94000000   -30.17000000    58.85000000
   O    104.62000000   -31.00000000    57.20000000
   H    101.55000000   -27.81000000    59.77000000
   H    104.29000000   -28.05000000    58.83000000
   H    102.74000000   -30.65000000    58.85000000
   H    103.71000000   -30.00000000    60.18000000
   H    105.98000000   -29.68000000    59.74000000
   H    106.82000000   -30.57000000    58.58000000
   N    103.74000000   -28.21000000    56.39000000
   C    103.44000000   -28.07000000    54.98000000
   C    104.40000000   -28.69000000    53.97000000
   O    104.69000000   -28.02000000    52.98000000
   H    104.61000000   -28.65000000    56.68000000
   H    103.37000000   -27.00000000    54.78000000
   H    102.43000000   -28.46000000    54.88000000
   N    104.96000000   -29.85000000    54.32000000
   C    105.79000000   -30.64000000    53.44000000
   C    105.04000000   -31.02000000    52.18000000
   O    103.83000000   -31.26000000    52.17000000
   C    106.34000000   -31.85000000    54.18000000
   C    107.53000000   -32.36000000    53.38000000
   C    107.36000000   -33.52000000    52.63000000
   C    108.81000000   -31.81000000    53.50000000
   C    108.46000000   -34.21000000    52.12000000
   C    109.89000000   -32.34000000    52.78000000
   C    109.74000000   -33.61000000    52.20000000
   O    110.77000000   -34.19000000    51.53000000
   H    104.72000000   -30.28000000    55.20000000
   H    106.63000000   -30.01000000    53.11000000
   H    105.67000000   -32.66000000    54.46000000
   H    106.64000000   -31.44000000    55.14000000
   H    106.36000000   -33.94000000    52.59000000
   H    108.97000000   -30.89000000    54.05000000
   H    108.31000000   -35.12000000    51.55000000
   H    110.85000000   -31.85000000    52.85000000
   H    111.46000000   -33.52000000    51.44000000
   N    105.85000000   -31.19000000    51.13000000
   C    105.48000000   -31.40000000    49.74000000
   C    104.58000000   -32.59000000    49.43000000
   O    104.31000000   -33.42000000    50.29000000
   C    104.98000000   -30.11000000    49.10000000
   C    105.91000000   -28.94000000    49.40000000
   C    103.53000000   -29.75000000    49.39000000
   C    105.53000000   -27.66000000    48.66000000
   H    106.83000000   -31.23000000    51.35000000
   H    106.39000000   -31.70000000    49.22000000
   H    105.11000000   -30.32000000    48.04000000
   H    106.92000000   -29.26000000    49.13000000
   H    105.85000000   -28.74000000    50.47000000
   H    103.20000000   -29.24000000    48.48000000
   H    102.93000000   -30.63000000    49.62000000
   H    103.44000000   -29.11000000    50.27000000
   H    106.17000000   -26.87000000    49.05000000
   H    105.74000000   -27.82000000    47.60000000
   H    104.47000000   -27.48000000    48.85000000
   N    104.32000000   -32.82000000    48.14000000
   C    103.51000000   -33.91000000    47.63000000
   C    103.93000000   -34.57000000    46.32000000
   O    103.40000000   -35.59000000    45.89000000
   C    102.03000000   -33.55000000    47.55000000
   O    101.43000000   -33.20000000    48.78000000
   H    104.92000000   -32.29000000    47.52000000
   H    103.55000000   -34.68000000    48.40000000
   H    101.50000000   -34.43000000    47.19000000
   H    101.91000000   -32.81000000    46.76000000
   H    101.24000000   -34.04000000    49.19000000
   N    104.92000000   -34.06000000    45.59000000
   C    105.37000000   -34.42000000    44.26000000
   C    104.28000000   -34.57000000    43.21000000
   O    104.04000000   -35.62000000    42.62000000
   C    106.29000000   -35.63000000    44.35000000
   H    105.42000000   -33.25000000    45.92000000
   H    105.97000000   -33.64000000    43.79000000
   H    105.71000000   -36.49000000    44.69000000
   H    106.71000000   -35.89000000    43.38000000
   H    107.15000000   -35.40000000    44.99000000
   N    103.49000000   -33.55000000    42.87000000
   C    103.68000000   -32.15000000    43.19000000
   C    103.96000000   -31.28000000    41.97000000
   O    103.66000000   -31.58000000    40.82000000
   C    102.38000000   -31.84000000    43.92000000
   H    102.66000000   -33.78000000    42.33000000
   H    104.46000000   -32.05000000    43.94000000
   H    101.96000000   -32.74000000    44.35000000
   H    102.42000000   -31.08000000    44.70000000
   H    101.63000000   -31.44000000    43.23000000
   N    104.47000000   -30.06000000    42.18000000
   C    104.60000000   -29.36000000    43.44000000
   C    105.95000000   -28.65000000    43.47000000
   O    106.54000000   -28.52000000    44.54000000
   C    103.56000000   -28.25000000    43.57000000
   C    103.52000000   -27.56000000    44.93000000
   C    102.35000000   -26.59000000    45.04000000
   O    102.58000000   -25.37000000    45.09000000
   O    101.15000000   -26.94000000    45.13000000
   H    104.66000000   -29.48000000    41.38000000
   H    104.61000000   -30.08000000    44.26000000
   H    102.60000000   -28.73000000    43.39000000
   H    103.71000000   -27.50000000    42.80000000
   H    104.41000000   -26.94000000    45.08000000
   H    103.48000000   -28.36000000    45.67000000
   N    106.42000000   -28.02000000    42.39000000
   C    107.74000000   -27.44000000    42.46000000
   H    108.42800000   -28.03100000    41.85500000
   H    107.70900000   -26.41800000    42.08100000
   H    108.08000000   -27.43400000    43.49500000
   H    105.81000000   -27.99000000    41.59000000
  Ca     99.59000000   -26.31800000    56.59000000
   O     97.65000000   -28.08800000    55.67000000
   H     98.12000000   -28.79800000    55.25000000
   H     96.74000000   -28.36800000    55.69000000
   O    101.61800000   -25.00800000    55.51000000
   H    101.35800000   -24.45800000    54.77000000
   H    102.48800000   -24.69800000    55.75000000
   O     99.74800000   -26.74800000    53.90000000
   H     99.28800000   -27.42800000    53.42000000
   H    100.40800000   -26.41800000    53.28000000
   O     97.72000000   -24.56800000    55.36000000
   H     97.69000000   -24.36800000    54.42000000
   H     96.85000000   -24.32800000    55.68000000

Ca 1.00



