%chk=loop4.cluster29.chk
%nprocshared=20
%mem=10GB
%nosave
#b3lyp/svp scf=(tight,noincore,xqc) Test 
#IOP(5/87=12) Density=Current Pop=(MK,readradii) iop(6/33=2) iop(6/42=6)

loop4.cluster29 

   -3  1 
   C     94.57000000    84.78000000    42.24000000
   C     95.64000000    83.85000000    42.80000000
   O     95.53000000    82.64000000    42.62000000
   H     93.70200000    84.77300000    42.89900000
   H     94.96700000    85.79300000    42.17300000
   H     94.27400000    84.43900000    41.24800000
   N     96.65000000    84.43000000    43.47000000
   C     97.82000000    83.93000000    44.15000000
   C     98.84000000    83.12000000    43.36000000
   O     99.96000000    82.82000000    43.76000000
   C     97.54000000    83.31000000    45.52000000
   C     96.66000000    82.07000000    45.61000000
   O     96.11000000    81.76000000    46.69000000
   O     96.65000000    81.28000000    44.63000000
   H     96.51000000    85.42000000    43.57000000
   H     98.44000000    84.81000000    44.33000000
   H     97.16000000    84.11000000    46.15000000
   H     98.50000000    83.14000000    46.00000000
   N     98.46000000    82.57000000    42.20000000
   C     99.19000000    81.72000000    41.28000000
   C     98.93000000    80.24000000    41.56000000
   O     97.80000000    79.85000000    41.83000000
   C     98.96000000    82.09000000    39.82000000
   C     99.54000000    83.35000000    39.20000000
   C     97.46000000    82.11000000    39.54000000
   C     99.89000000    83.38000000    37.71000000
   H     97.50000000    82.69000000    41.93000000
   H    100.24000000    81.94000000    41.49000000
   H     99.39000000    81.26000000    39.26000000
   H    100.51000000    83.35000000    39.69000000
   H     99.02000000    84.29000000    39.38000000
   H     96.99000000    82.93000000    40.08000000
   H     97.39000000    82.33000000    38.48000000
   H     96.97000000    81.17000000    39.79000000
   H     98.99000000    83.43000000    37.09000000
   H    100.33000000    84.37000000    37.65000000
   H    100.57000000    82.55000000    37.51000000
   N    100.02000000    79.47000000    41.53000000
   C    100.03000000    78.08000000    41.93000000
   C     99.97000000    77.84000000    43.43000000
   O    100.72000000    78.41000000    44.21000000
   C    101.27000000    77.35000000    41.43000000
   C    102.55000000    78.13000000    41.70000000
   O    102.62000000    79.29000000    41.26000000
   O    103.57000000    77.57000000    42.16000000
   H    100.90000000    79.89000000    41.23000000
   H     99.13000000    77.65000000    41.48000000
   H    101.22000000    77.22000000    40.35000000
   H    101.35000000    76.36000000    41.88000000
   N     99.20000000    76.89000000    43.98000000
   C     98.40000000    75.90000000    43.30000000
   C     97.20000000    76.49000000    42.58000000
   O     96.77000000    77.60000000    42.89000000
   H     99.32000000    76.85000000    44.98000000
   H     97.94000000    75.26000000    44.06000000
   H     99.04000000    75.26000000    42.70000000
   N     96.68000000    75.79000000    41.57000000
   C     97.04000000    74.44000000    41.17000000
   C     96.75000000    74.29000000    39.69000000
   O     95.72000000    73.83000000    39.18000000
   C     96.25000000    73.47000000    42.04000000
   C     96.42000000    72.00000000    41.66000000
   O     97.32000000    71.74000000    40.82000000
   O     95.74000000    71.16000000    42.28000000
   H     95.89000000    76.19000000    41.08000000
   H     98.10000000    74.25000000    41.31000000
   H     95.21000000    73.76000000    42.22000000
   H     96.78000000    73.49000000    42.99000000
   N     97.56000000    74.97000000    38.87000000
   C     98.82000000    75.59000000    39.22000000
   C     99.72000000    76.10000000    38.10000000
   O    100.91000000    76.30000000    38.36000000
   H     97.33000000    74.97000000    37.89000000
   H     99.47000000    74.90000000    39.76000000
   H     98.59000000    76.48000000    39.81000000
   N     99.20000000    76.27000000    36.88000000
   C     99.88000000    76.83000000    35.73000000
   C     98.94000000    77.82000000    35.07000000
   O     98.08000000    77.44000000    34.27000000
   C    100.33000000    75.68000000    34.84000000
   C    101.44000000    74.84000000    35.47000000
   C    101.47000000    73.47000000    34.80000000
   N    102.46000000    73.22000000    33.94000000
   O    100.67000000    72.58000000    35.04000000
   H     98.22000000    76.09000000    36.75000000
   H    100.76000000    77.35000000    36.11000000
   H    100.67000000    76.13000000    33.91000000
   H     99.47000000    75.05000000    34.60000000
   H    101.25000000    74.61000000    36.52000000
   H    102.38000000    75.39000000    35.44000000
   H    103.18000000    73.91000000    33.78000000
   H    102.55000000    72.24000000    33.71000000
   N     99.13000000    79.13000000    35.26000000
   C     98.53000000    80.19000000    34.46000000
   C     97.17000000    80.61000000    35.00000000
   O     96.70000000    80.48000000    36.13000000
   C     99.54000000    81.33000000    34.46000000
   C     99.19000000    82.47000000    33.51000000
   C    100.94000000    80.87000000    34.06000000
   H     99.84000000    79.31000000    35.95000000
   H     98.40000000    79.78000000    33.46000000
   H     99.55000000    81.77000000    35.45000000
   H     98.21000000    82.88000000    33.72000000
   H    100.01000000    83.18000000    33.63000000
   H     99.32000000    82.02000000    32.52000000
   H    101.57000000    81.64000000    33.62000000
   H    101.48000000    80.36000000    34.87000000
   H    100.87000000    80.18000000    33.22000000
   N     96.32000000    81.10000000    34.08000000
   C     94.94000000    81.51000000    34.22000000
   C     93.91000000    80.39000000    34.20000000
   O     92.73000000    80.50000000    34.53000000
   C     94.71000000    82.44000000    33.03000000
   C     93.40000000    83.21000000    33.19000000
   N     92.66000000    83.35000000    32.09000000
   O     93.12000000    83.78000000    34.24000000
   H     96.69000000    81.14000000    33.15000000
   H     94.85000000    82.03000000    35.17000000
   H     94.54000000    81.82000000    32.15000000
   H     95.56000000    83.11000000    33.00000000
   H     92.96000000    82.98000000    31.20000000
   H     91.74000000    83.77000000    32.11000000
   N     94.38000000    79.23000000    33.75000000
   C     93.50000000    78.08000000    33.70000000
   C     93.10000000    77.62000000    35.10000000
   O     93.87000000    77.75000000    36.06000000
   C     94.22000000    76.96000000    32.96000000
   C     94.56000000    77.32000000    31.54000000
   C     95.87000000    77.70000000    31.25000000
   C     93.57000000    77.49000000    30.56000000
   C     96.27000000    78.07000000    29.96000000
   C     93.98000000    77.75000000    29.24000000
   C     95.32000000    78.03000000    28.92000000
   O     95.67000000    78.33000000    27.64000000
   H     95.36000000    79.08000000    33.56000000
   H     92.66000000    78.42000000    33.10000000
   H     93.57000000    76.09000000    32.87000000
   H     95.09000000    76.60000000    33.52000000
   H     96.66000000    77.72000000    31.99000000
   H     92.55000000    77.20000000    30.80000000
   H     97.30000000    78.36000000    29.77000000
   H     93.20000000    77.69000000    28.49000000
   H     96.62000000    78.42000000    27.57000000
   N     91.85000000    77.19000000    35.25000000
   C     91.14000000    76.89000000    36.48000000
   C     91.25000000    78.03000000    37.48000000
   O     90.77000000    77.77000000    38.58000000
   C     91.54000000    75.55000000    37.08000000
   C     90.42000000    74.80000000    37.81000000
   C     90.76000000    73.35000000    38.13000000
   O     89.95000000    72.75000000    38.86000000
   O     91.83000000    72.82000000    37.76000000
   H     91.31000000    77.20000000    34.39000000
   H     90.06000000    76.79000000    36.36000000
   H     92.45000000    75.56000000    37.68000000
   H     91.68000000    74.93000000    36.20000000
   H     89.51000000    74.69000000    37.21000000
   H     90.14000000    75.28000000    38.75000000
   N     91.84000000    79.19000000    37.19000000
   C     91.77000000    80.44000000    37.91000000
   C     90.69000000    81.43000000    37.50000000
   O     90.05000000    82.10000000    38.31000000
   C     93.13000000    81.13000000    37.99000000
   C     94.33000000    80.32000000    38.48000000
   C     94.45000000    79.98000000    39.95000000
   O     95.28000000    79.12000000    40.33000000
   O     93.81000000    80.66000000    40.78000000
   H     92.37000000    79.26000000    36.33000000
   H     91.62000000    80.19000000    38.96000000
   H     93.06000000    81.97000000    38.68000000
   H     93.24000000    81.46000000    36.96000000
   H     95.27000000    80.79000000    38.20000000
   H     94.35000000    79.41000000    37.87000000
   N     90.26000000    81.31000000    36.24000000
   C     88.98000000    81.89000000    35.86000000
   H     88.25500000    81.72400000    36.65700000
   H     89.10000000    82.96100000    35.69600000
   H     88.62500000    81.41900000    34.94300000
   H     90.70000000    80.60000000    35.69000000
  Ca     95.20000000    79.87000000    42.99000000
   O     93.40000000    81.25000000    44.38000000
   H     93.73000000    81.15000000    45.27000000
   H     92.48000000    81.47000000    44.48000000
   O     93.31000000    77.69000000    42.67000000
   H     92.46000000    77.57000000    43.10000000
   H     93.09000000    77.72000000    41.74000000
   O     94.50000000    78.18000000    45.11000000
   H     94.74000000    77.27000000    44.90000000
   H     93.78000000    78.10000000    45.74000000

Ca 1.00



