%chk=loop1.cluster87.chk
%nprocshared=20
%mem=10GB
%nosave
#b3lyp/svp scf=(tight,noincore,xqc) Test 
#IOP(5/87=12) Density=Current Pop=(MK,readradii) iop(6/33=2) iop(6/42=6)

loop1.cluster87 

   0  1 
   C     82.83000000    77.21000000    66.53000000
   C     84.31000000    77.29000000    66.22000000
   O     84.82000000    78.25000000    65.65000000
   H     82.26800000    77.13100000    65.59900000
   H     82.63400000    76.33300000    67.14700000
   H     82.52100000    78.10800000    67.06500000
   N     85.07000000    76.23000000    66.51000000
   C     86.51000000    76.37000000    66.38000000
   C     86.95000000    75.99000000    64.97000000
   O     88.15000000    75.90000000    64.72000000
   C     87.23000000    75.54000000    67.44000000
   C     86.78000000    74.08000000    67.40000000
   O     85.62000000    73.77000000    67.76000000
   O     87.63000000    73.20000000    67.16000000
   H     84.73000000    75.42000000    67.01000000
   H     86.72000000    77.41000000    66.62000000
   H     86.88000000    75.99000000    68.37000000
   H     88.30000000    75.64000000    67.25000000
   N     86.10000000    75.51000000    64.06000000
   C     86.47000000    74.72000000    62.90000000
   C     86.56000000    75.35000000    61.52000000
   O     85.60000000    76.03000000    61.17000000
   C     85.50000000    73.55000000    62.78000000
   C     85.40000000    72.52000000    63.90000000
   C     86.57000000    71.57000000    64.12000000
   C     86.36000000    70.51000000    65.19000000
   N     85.96000000    71.09000000    66.49000000
   H     85.16000000    75.89000000    64.11000000
   H     87.46000000    74.29000000    63.07000000
   H     85.83000000    73.01000000    61.89000000
   H     84.51000000    73.98000000    62.61000000
   H     84.44000000    72.01000000    63.79000000
   H     85.31000000    73.08000000    64.83000000
   H     87.48000000    72.10000000    64.42000000
   H     86.85000000    71.07000000    63.19000000
   H     87.21000000    69.84000000    65.30000000
   H     85.54000000    69.88000000    64.85000000
   H     86.48000000    71.95000000    66.59000000
   H     85.01000000    71.44000000    66.50000000
   H     86.03000000    70.48000000    67.29000000
   N     87.65000000    75.33000000    60.75000000
   C     88.94000000    74.76000000    61.06000000
   C     90.00000000    75.60000000    60.37000000
   O     90.39000000    75.36000000    59.22000000
   C     88.87000000    73.29000000    60.64000000
   C     90.15000000    72.54000000    60.98000000
   O     90.27000000    71.40000000    60.48000000
   O     90.97000000    72.97000000    61.82000000
   H     87.55000000    75.89000000    59.92000000
   H     89.10000000    74.72000000    62.14000000
   H     88.79000000    73.16000000    59.56000000
   H     88.06000000    72.89000000    61.25000000
   N     90.49000000    76.68000000    60.98000000
   C     90.25000000    77.18000000    62.32000000
   C     90.49000000    78.67000000    62.46000000
   O     91.43000000    79.17000000    61.85000000
   H     91.07000000    77.24000000    60.37000000
   H     90.88000000    76.76000000    63.11000000
   H     89.25000000    76.81000000    62.58000000
   N     89.61000000    79.48000000    63.06000000
   C     88.51000000    79.15000000    63.94000000
   C     88.23000000    80.21000000    64.99000000
   O     88.87000000    81.26000000    65.00000000
   C     87.27000000    78.88000000    63.09000000
   C     87.00000000    79.98000000    62.07000000
   O     86.74000000    79.69000000    60.88000000
   O     86.93000000    81.15000000    62.51000000
   H     89.92000000    80.43000000    63.19000000
   H     88.72000000    78.24000000    64.50000000
   H     86.44000000    78.86000000    63.80000000
   H     87.36000000    77.91000000    62.60000000
   N     87.34000000    79.93000000    65.95000000
   C     86.96000000    80.89000000    66.96000000
   C     85.84000000    81.82000000    66.54000000
   O     85.71000000    82.92000000    67.09000000
   H     86.85000000    79.05000000    66.00000000
   H     87.70000000    81.63000000    67.28000000
   H     86.71000000    80.43000000    67.92000000
   N     84.99000000    81.45000000    65.58000000
   C     83.95000000    82.29000000    65.05000000
   C     82.77000000    81.58000000    64.39000000
   O     83.01000000    80.55000000    63.77000000
   C     84.54000000    83.23000000    64.00000000
   C     83.78000000    84.49000000    63.62000000
   O     84.84000000    82.59000000    62.78000000
   H     85.20000000    80.57000000    65.12000000
   H     83.52000000    82.87000000    65.87000000
   H     85.44000000    83.57000000    64.52000000
   H     85.59000000    82.02000000    62.96000000
   H     83.54000000    85.02000000    64.55000000
   H     84.34000000    85.15000000    62.96000000
   H     82.86000000    84.21000000    63.09000000
   N     81.54000000    82.11000000    64.37000000
   C     80.58000000    81.79000000    63.33000000
   C     80.25000000    82.98000000    62.43000000
   O     80.32000000    84.12000000    62.88000000
   C     79.39000000    81.16000000    64.04000000
   C     78.18000000    80.92000000    63.15000000
   C     78.98000000    81.82000000    65.36000000
   C     78.41000000    79.95000000    62.00000000
   H     81.34000000    82.90000000    64.96000000
   H     80.89000000    80.92000000    62.76000000
   H     79.68000000    80.17000000    64.38000000
   H     77.90000000    81.89000000    62.74000000
   H     77.37000000    80.52000000    63.76000000
   H     78.35000000    81.12000000    65.91000000
   H     79.79000000    81.90000000    66.09000000
   H     78.51000000    82.79000000    65.24000000
   H     77.73000000    79.14000000    62.23000000
   H     78.08000000    80.41000000    61.06000000
   H     79.48000000    79.72000000    61.97000000
   N     79.97000000    82.71000000    61.16000000
   C     79.58000000    83.64000000    60.11000000
   C     78.66000000    83.10000000    59.03000000
   O     77.83000000    83.85000000    58.53000000
   C     80.77000000    84.26000000    59.40000000
   C     80.39000000    85.53000000    58.65000000
   O     81.43000000    83.29000000    58.61000000
   H     80.07000000    81.74000000    60.90000000
   H     79.16000000    84.56000000    60.51000000
   H     81.55000000    84.48000000    60.13000000
   H     82.15000000    83.77000000    58.20000000
   H     81.21000000    86.24000000    58.73000000
   H     80.33000000    85.27000000    57.59000000
   H     79.42000000    85.94000000    58.95000000
   N     78.76000000    81.80000000    58.73000000
   C     78.21000000    81.09000000    57.59000000
   C     78.76000000    81.60000000    56.27000000
   O     79.11000000    82.77000000    56.11000000
   C     76.69000000    81.09000000    57.55000000
   C     76.02000000    80.78000000    58.89000000
   O     76.17000000    80.22000000    56.56000000
   H     79.59000000    81.43000000    59.18000000
   H     78.59000000    80.08000000    57.75000000
   H     76.37000000    82.09000000    57.27000000
   H     75.71000000    79.55000000    57.07000000
   H     76.24000000    79.75000000    59.16000000
   H     76.39000000    81.48000000    59.64000000
   H     74.93000000    80.83000000    58.81000000
   N     78.83000000    80.63000000    55.36000000
   C     79.28000000    80.76000000    53.99000000
   C     80.48000000    79.97000000    53.50000000
   O     81.15000000    80.43000000    52.57000000
   C     78.04000000    80.47000000    53.14000000
   C     77.06000000    81.63000000    53.25000000
   C     77.65000000    82.92000000    52.68000000
   C     76.54000000    83.82000000    52.14000000
   N     75.59000000    84.39000000    53.11000000
   H     78.37000000    79.77000000    55.60000000
   H     79.57000000    81.80000000    53.87000000
   H     77.55000000    79.60000000    53.59000000
   H     78.20000000    80.16000000    52.11000000
   H     76.81000000    81.83000000    54.29000000
   H     76.17000000    81.42000000    52.65000000
   H     78.25000000    82.58000000    51.84000000
   H     78.27000000    83.47000000    53.39000000
   H     76.01000000    83.32000000    51.33000000
   H     77.04000000    84.67000000    51.66000000
   H     76.00000000    84.81000000    53.93000000
   H     74.95000000    85.00000000    52.62000000
   H     75.00000000    83.65000000    53.45000000
   N     80.93000000    78.82000000    54.02000000
   C     80.54000000    77.88000000    55.05000000
   C     79.06000000    77.68000000    55.34000000
   O     78.62000000    77.83000000    56.48000000
   C     81.34000000    78.04000000    56.34000000
   C     81.58000000    76.74000000    57.10000000
   C     82.61000000    76.94000000    58.21000000
   O     82.45000000    77.89000000    59.00000000
   O     83.65000000    76.25000000    58.28000000
   H     81.70000000    78.50000000    53.44000000
   H     80.71000000    76.94000000    54.54000000
   H     80.80000000    78.73000000    56.99000000
   H     82.36000000    78.38000000    56.17000000
   H     82.10000000    76.03000000    56.45000000
   H     80.69000000    76.31000000    57.54000000
   N     78.24000000    77.22000000    54.39000000
   C     76.84000000    76.89000000    54.49000000
   H     76.26900000    77.52300000    53.81100000
   H     76.69300000    75.84400000    54.22100000
   H     76.49900000    77.05500000    55.51200000
   H     78.56000000    77.05000000    53.44000000
  Ca     84.59000000    78.23000000    60.15000000
   O     84.72000000    80.18000000    58.30000000
   H     84.71000000    81.03000000    58.73000000
   H     84.72000000    80.39000000    57.36000000
   O     84.00000000    78.18000000    62.70000000
   H     83.71000000    79.04000000    62.99000000
   H     83.64000000    77.58000000    63.36000000
   O     87.09000000    77.75000000    59.11000000
   H     87.45000000    77.35000000    58.32000000
   H     87.79000000    78.34000000    59.41000000
   O     83.74000000    80.59000000    61.04000000
   H     83.81000000    80.79000000    61.98000000
   H     83.99000000    81.40000000    60.60000000

Ca 1.00



