%chk=loop3.cluster205.chk
%nprocshared=20
%mem=10GB
%nosave
#b3lyp/svp scf=(tight,noincore,xqc) Test 
#IOP(5/87=12) Density=Current Pop=(MK,readradii) iop(6/33=2) iop(6/42=6)

loop3.cluster205 

   0  1 
   C     58.09000000    26.93000000    48.70000000
   C     58.21000000    25.81000000    49.72000000
   O     57.56000000    24.80000000    49.44000000
   H     57.45800000    27.72100000    49.10300000
   H     59.08000000    27.33200000    48.48300000
   H     57.64600000    26.54200000    47.78400000
   N     58.86000000    25.88000000    50.88000000
   C     58.73000000    24.94000000    51.98000000
   C     58.46000000    25.60000000    53.33000000
   O     59.01000000    26.68000000    53.53000000
   C     59.94000000    24.01000000    51.95000000
   C     59.74000000    22.87000000    52.94000000
   O     59.00000000    21.95000000    52.53000000
   O     60.10000000    22.93000000    54.13000000
   H     59.30000000    26.76000000    51.06000000
   H     57.83000000    24.36000000    51.80000000
   H     60.88000000    24.49000000    52.22000000
   H     59.98000000    23.64000000    50.92000000
   N     57.52000000    25.11000000    54.14000000
   C     57.06000000    25.77000000    55.34000000
   C     58.07000000    25.75000000    56.49000000
   O     58.03000000    26.66000000    57.32000000
   C     55.69000000    25.24000000    55.76000000
   C     54.56000000    25.96000000    55.03000000
   C     53.19000000    25.29000000    55.15000000
   C     52.32000000    25.80000000    54.01000000
   N     50.97000000    25.23000000    54.11000000
   H     57.13000000    24.20000000    53.95000000
   H     56.95000000    26.84000000    55.15000000
   H     55.61000000    25.45000000    56.83000000
   H     55.69000000    24.17000000    55.57000000
   H     54.86000000    25.99000000    53.98000000
   H     54.39000000    27.02000000    55.23000000
   H     52.70000000    25.56000000    56.08000000
   H     53.25000000    24.20000000    55.04000000
   H     52.80000000    25.58000000    53.06000000
   H     52.15000000    26.87000000    54.04000000
   H     50.87000000    24.22000000    54.11000000
   H     50.54000000    25.59000000    54.95000000
   H     50.42000000    25.62000000    53.36000000
   N     59.02000000    24.82000000    56.46000000
   C     60.14000000    24.66000000    57.36000000
   C     61.53000000    24.84000000    56.78000000
   O     62.53000000    24.92000000    57.49000000
   C     60.06000000    23.40000000    58.22000000
   C     59.90000000    22.13000000    57.40000000
   O     60.90000000    21.68000000    56.80000000
   O     58.78000000    21.64000000    57.12000000
   H     59.01000000    24.13000000    55.72000000
   H     60.01000000    25.56000000    57.96000000
   H     59.25000000    23.57000000    58.93000000
   H     60.98000000    23.33000000    58.80000000
   N     61.71000000    24.76000000    55.45000000
   C     63.04000000    24.74000000    54.88000000
   C     63.35000000    23.57000000    53.95000000
   O     63.66000000    23.79000000    52.79000000
   H     60.96000000    24.35000000    54.92000000
   H     63.78000000    24.65000000    55.67000000
   H     63.15000000    25.65000000    54.29000000
   N     63.38000000    22.37000000    54.54000000
   C     63.75000000    21.18000000    53.80000000
   C     62.68000000    20.69000000    52.83000000
   O     61.60000000    20.44000000    53.36000000
   C     64.15000000    20.12000000    54.82000000
   C     64.71000000    18.91000000    54.08000000
   N     66.03000000    18.85000000    53.89000000
   O     63.96000000    18.03000000    53.67000000
   H     62.96000000    22.31000000    55.45000000
   H     64.67000000    21.49000000    53.32000000
   H     63.32000000    19.83000000    55.45000000
   H     64.98000000    20.56000000    55.37000000
   H     66.61000000    19.58000000    54.29000000
   H     66.43000000    18.06000000    53.41000000
   N     62.99000000    20.57000000    51.54000000
   C     62.07000000    20.43000000    50.43000000
   C     61.17000000    19.21000000    50.38000000
   O     60.58000000    18.94000000    49.33000000
   H     63.95000000    20.68000000    51.26000000
   H     62.61000000    20.39000000    49.48000000
   H     61.42000000    21.28000000    50.24000000
   N     61.20000000    18.36000000    51.41000000
   C     60.31000000    17.22000000    51.50000000
   C     58.96000000    17.63000000    52.08000000
   O     58.88000000    18.28000000    53.12000000
   C     61.03000000    16.10000000    52.24000000
   C     60.40000000    14.73000000    52.08000000
   C     60.65000000    14.02000000    50.90000000
   C     59.69000000    14.14000000    53.13000000
   C     60.33000000    12.66000000    50.91000000
   C     59.23000000    12.81000000    53.13000000
   C     59.68000000    12.07000000    52.01000000
   O     59.30000000    10.76000000    51.92000000
   H     61.64000000    18.64000000    52.27000000
   H     60.14000000    16.81000000    50.51000000
   H     61.02000000    16.35000000    53.30000000
   H     62.02000000    16.10000000    51.78000000
   H     61.22000000    14.45000000    50.09000000
   H     59.36000000    14.70000000    54.00000000
   H     60.57000000    12.03000000    50.06000000
   H     58.78000000    12.32000000    53.97000000
   H     58.65000000    10.56000000    52.60000000
   N     57.88000000    17.13000000    51.48000000
   C     56.49000000    17.13000000    51.90000000
   C     56.19000000    16.82000000    53.36000000
   O     57.03000000    16.69000000    54.25000000
   C     55.85000000    18.41000000    51.37000000
   C     55.76000000    18.29000000    49.85000000
   C     56.47000000    19.70000000    51.91000000
   C     54.63000000    19.14000000    49.27000000
   H     57.94000000    16.47000000    50.71000000
   H     55.87000000    16.35000000    51.46000000
   H     54.82000000    18.32000000    51.72000000
   H     55.57000000    17.25000000    49.60000000
   H     56.79000000    18.54000000    49.60000000
   H     56.51000000    19.75000000    53.00000000
   H     57.44000000    19.90000000    51.46000000
   H     55.82000000    20.52000000    51.61000000
   H     53.68000000    18.78000000    49.64000000
   H     54.76000000    20.19000000    49.53000000
   H     54.65000000    19.02000000    48.18000000
   N     54.89000000    16.79000000    53.65000000
   C     54.40000000    16.62000000    55.01000000
   C     53.38000000    15.50000000    55.16000000
   O     53.35000000    14.89000000    56.23000000
   C     53.85000000    17.95000000    55.50000000
   O     52.86000000    18.47000000    54.65000000
   H     54.23000000    16.92000000    52.89000000
   H     55.19000000    16.47000000    55.75000000
   H     54.67000000    18.66000000    55.64000000
   H     53.38000000    17.64000000    56.43000000
   H     52.58000000    19.29000000    55.05000000
   N     52.58000000    15.11000000    54.17000000
   C     51.41000000    14.26000000    54.09000000
   C     50.60000000    14.35000000    55.38000000
   O     50.50000000    13.35000000    56.09000000
   C     51.90000000    12.86000000    53.76000000
   H     52.72000000    15.57000000    53.28000000
   H     50.80000000    14.64000000    53.27000000
   H     52.45000000    12.88000000    52.82000000
   H     52.63000000    12.48000000    54.48000000
   H     51.10000000    12.12000000    53.68000000
   N     50.01000000    15.46000000    55.82000000
   C     50.01000000    16.80000000    55.27000000
   C     48.79000000    17.12000000    54.41000000
   O     47.69000000    16.68000000    54.75000000
   C     50.10000000    17.77000000    56.45000000
   H     49.58000000    15.36000000    56.73000000
   H     50.88000000    16.98000000    54.64000000
   H     50.82000000    17.40000000    57.18000000
   H     50.25000000    18.81000000    56.16000000
   H     49.16000000    17.74000000    57.00000000
   N     48.85000000    17.90000000    53.34000000
   C     50.00000000    18.45000000    52.64000000
   C     50.08000000    18.10000000    51.16000000
   O     51.14000000    18.06000000    50.55000000
   C     49.97000000    19.93000000    52.99000000
   C     51.26000000    20.64000000    52.57000000
   C     51.04000000    22.14000000    52.67000000
   O     50.15000000    22.76000000    52.06000000
   O     51.83000000    22.72000000    53.46000000
   H     47.92000000    18.24000000    53.12000000
   H     50.90000000    18.10000000    53.14000000
   H     49.85000000    20.01000000    54.07000000
   H     49.05000000    20.30000000    52.54000000
   H     51.42000000    20.36000000    51.53000000
   H     52.04000000    20.41000000    53.29000000
   N     48.96000000    17.76000000    50.51000000
   C     48.94000000    17.18000000    49.18000000
   H     49.16500000    17.95200000    48.44400000
   H     49.68800000    16.39000000    49.11600000
   H     47.95300000    16.76400000    48.97900000
   H     48.11000000    17.69000000    51.05000000
  Ca     59.15000000    20.51000000    54.84000000
   O     57.25000000    19.00000000    55.98000000
   H     57.05000000    18.45000000    56.75000000
   H     57.04000000    18.44000000    55.23000000
   O     56.74000000    21.75000000    54.77000000
   H     56.19000000    21.68000000    55.55000000
   H     56.13000000    21.93000000    54.06000000
   O     60.67000000    18.74000000    56.28000000
   H     61.10000000    19.07000000    57.07000000
   H     61.17000000    17.96000000    56.04000000

Ca 1.00



