%chk=loop2.cluster146.chk
%nprocshared=20
%mem=10GB
%nosave
#b3lyp/svp scf=(tight,noincore,xqc) Test 
#IOP(5/87=12) Density=Current Pop=(MK,readradii) iop(6/33=2) iop(6/42=6)

loop2.cluster146 

   -2  1 
   C     92.76000000    47.09000000   -18.23000000
   C     91.25000000    46.95000000   -18.42000000
   O     90.52000000    47.04000000   -17.43000000
   H     93.22500000    47.33600000   -19.18500000
   H     92.96400000    47.88400000   -17.51200000
   H     93.16900000    46.15000000   -17.85900000
   N     90.67000000    46.74000000   -19.60000000
   C     91.17000000    47.11000000   -20.91000000
   C     90.70000000    46.25000000   -22.07000000
   O     89.50000000    45.99000000   -22.20000000
   C     90.75000000    48.55000000   -21.19000000
   C     89.30000000    48.88000000   -20.89000000
   O     88.94000000    50.07000000   -21.05000000
   O     88.43000000    48.02000000   -20.67000000
   H     89.67000000    46.56000000   -19.65000000
   H     92.25000000    47.22000000   -20.93000000
   H     91.06000000    48.88000000   -22.19000000
   H     91.37000000    49.10000000   -20.48000000
   N     91.67000000    45.77000000   -22.85000000
   C     91.58000000    44.94000000   -24.04000000
   C     90.67000000    45.49000000   -25.13000000
   O     91.17000000    45.54000000   -26.25000000
   C     91.22000000    43.52000000   -23.62000000
   H     92.62000000    46.02000000   -22.63000000
   H     92.61000000    44.91000000   -24.40000000
   H     91.51000000    42.86000000   -24.44000000
   H     91.84000000    43.25000000   -22.77000000
   H     90.13000000    43.40000000   -23.57000000
   N     89.39000000    45.77000000   -24.89000000
   C     88.47000000    46.44000000   -25.79000000
   C     87.72000000    47.59000000   -25.12000000
   O     87.67000000    47.57000000   -23.89000000
   C     87.46000000    45.44000000   -26.33000000
   C     86.74000000    44.64000000   -25.25000000
   O     86.64000000    45.06000000   -24.08000000
   O     86.16000000    43.60000000   -25.61000000
   H     89.12000000    45.62000000   -23.93000000
   H     89.00000000    46.90000000   -26.62000000
   H     87.79000000    44.76000000   -27.11000000
   H     86.65000000    45.94000000   -26.87000000
   N     87.03000000    48.42000000   -25.90000000
   C     86.15000000    49.48000000   -25.44000000
   C     84.68000000    49.08000000   -25.35000000
   O     84.03000000    49.12000000   -26.39000000
   H     87.17000000    48.20000000   -26.88000000
   H     86.14000000    50.24000000   -26.22000000
   H     86.56000000    49.94000000   -24.55000000
   N     84.13000000    48.73000000   -24.18000000
   C     82.71000000    48.49000000   -23.98000000
   C     82.17000000    49.34000000   -22.84000000
   O     80.97000000    49.31000000   -22.59000000
   C     82.53000000    46.99000000   -23.74000000
   C     83.25000000    46.38000000   -22.55000000
   N     82.59000000    45.75000000   -21.57000000
   O     84.47000000    46.50000000   -22.53000000
   H     84.79000000    48.47000000   -23.47000000
   H     82.12000000    48.72000000   -24.87000000
   H     82.88000000    46.44000000   -24.61000000
   H     81.50000000    46.64000000   -23.71000000
   H     81.59000000    45.60000000   -21.61000000
   H     83.21000000    45.26000000   -20.94000000
   N     83.05000000    49.99000000   -22.08000000
   C     82.67000000    50.76000000   -20.90000000
   C     82.87000000    49.97000000   -19.62000000
   O     83.15000000    48.77000000   -19.62000000
   H     84.03000000    49.92000000   -22.32000000
   H     81.65000000    51.12000000   -20.98000000
   H     83.34000000    51.61000000   -20.83000000
   N     82.73000000    50.59000000   -18.44000000
   C     82.35000000    51.97000000   -18.24000000
   C     83.23000000    52.77000000   -17.29000000
   O     83.24000000    53.99000000   -17.41000000
   C     80.91000000    52.03000000   -17.72000000
   C     79.83000000    51.55000000   -18.68000000
   O     80.82000000    51.18000000   -16.61000000
   H     82.67000000    50.03000000   -17.60000000
   H     82.42000000    52.54000000   -19.17000000
   H     80.62000000    53.05000000   -17.45000000
   H     80.11000000    51.51000000   -16.06000000
   H     79.85000000    52.25000000   -19.52000000
   H     80.10000000    50.56000000   -19.04000000
   H     78.86000000    51.72000000   -18.22000000
   N     84.03000000    52.16000000   -16.41000000
   C     84.84000000    52.71000000   -15.33000000
   C     84.07000000    53.73000000   -14.51000000
   O     84.26000000    54.93000000   -14.71000000
   C     86.25000000    53.15000000   -15.71000000
   C     86.81000000    52.01000000   -16.57000000
   C     87.15000000    53.39000000   -14.51000000
   C     88.29000000    52.10000000   -16.92000000
   H     84.03000000    51.16000000   -16.47000000
   H     84.97000000    51.84000000   -14.68000000
   H     86.07000000    54.04000000   -16.31000000
   H     86.27000000    51.92000000   -17.51000000
   H     86.66000000    51.09000000   -16.02000000
   H     86.82000000    54.23000000   -13.90000000
   H     87.32000000    52.41000000   -14.07000000
   H     88.11000000    53.77000000   -14.87000000
   H     88.54000000    51.43000000   -17.74000000
   H     88.63000000    53.10000000   -17.18000000
   H     88.81000000    51.64000000   -16.07000000
   N     83.16000000    53.33000000   -13.62000000
   C     82.79000000    51.98000000   -13.26000000
   C     83.50000000    51.55000000   -11.98000000
   O     84.31000000    50.63000000   -11.96000000
   C     81.29000000    51.85000000   -13.03000000
   C     80.64000000    52.85000000   -12.08000000
   O     79.48000000    52.58000000   -11.71000000
   O     81.17000000    53.93000000   -11.74000000
   H     82.72000000    54.04000000   -13.06000000
   H     82.96000000    51.39000000   -14.16000000
   H     80.91000000    50.85000000   -12.82000000
   H     80.86000000    52.28000000   -13.94000000
   N     83.24000000    52.26000000   -10.88000000
   C     84.06000000    52.19000000    -9.69000000
   C     83.17000000    52.30000000    -8.46000000
   O     82.08000000    52.84000000    -8.62000000
   C     85.18000000    53.23000000    -9.65000000
   C     84.74000000    54.63000000    -9.31000000
   C     84.07000000    55.44000000   -10.24000000
   C     84.97000000    55.08000000    -8.01000000
   C     83.77000000    56.77000000    -9.89000000
   C     84.75000000    56.42000000    -7.68000000
   C     84.12000000    57.25000000    -8.63000000
   H     82.65000000    53.07000000   -10.99000000
   H     84.51000000    51.20000000    -9.80000000
   H     85.70000000    53.28000000   -10.61000000
   H     85.88000000    52.87000000    -8.89000000
   H     83.92000000    55.12000000   -11.26000000
   H     85.42000000    54.55000000    -7.18000000
   H     83.25000000    57.45000000   -10.54000000
   H     85.10000000    56.79000000    -6.73000000
   H     83.90000000    58.29000000    -8.42000000
   N     83.44000000    51.61000000    -7.35000000
   C     84.71000000    51.05000000    -6.94000000
   C     85.21000000    49.84000000    -7.72000000
   O     84.42000000    49.00000000    -8.16000000
   C     84.72000000    50.84000000    -5.43000000
   C     83.23000000    50.81000000    -5.12000000
   C     82.53000000    51.61000000    -6.22000000
   H     85.57000000    51.69000000    -7.13000000
   H     85.14000000    49.86000000    -5.18000000
   H     85.31000000    51.63000000    -4.95000000
   H     83.05000000    49.74000000    -5.27000000
   H     82.93000000    51.14000000    -4.13000000
   H     81.61000000    51.14000000    -6.57000000
   H     82.40000000    52.59000000    -5.77000000
   N     86.53000000    49.68000000    -7.82000000
   C     87.16000000    48.48000000    -8.32000000
   C     88.59000000    48.70000000    -8.79000000
   O     89.36000000    47.74000000    -8.71000000
   C     87.08000000    47.39000000    -7.26000000
   C     87.46000000    47.71000000    -5.81000000
   C     88.78000000    48.46000000    -5.69000000
   O     89.74000000    47.85000000    -5.17000000
   O     88.84000000    49.68000000    -5.93000000
   H     87.06000000    50.38000000    -7.32000000
   H     86.59000000    48.10000000    -9.17000000
   H     87.62000000    46.51000000    -7.60000000
   H     86.03000000    47.08000000    -7.26000000
   H     87.50000000    46.82000000    -5.19000000
   H     86.67000000    48.38000000    -5.48000000
   N     89.09000000    49.84000000    -9.27000000
   C     88.46000000    51.06000000    -9.75000000
   H     87.52400000    51.22000000    -9.21500000
   H     89.12600000    51.90600000    -9.57700000
   H     88.25700000    50.96900000   -10.81700000
   H     90.08000000    49.95000000    -9.39000000
  Ca     86.95000000    46.23000000   -21.63700000
   O     87.70000000    45.54000000   -19.25700000
   H     87.71000000    45.99000000   -18.40700000
   H     88.42000000    44.91000000   -19.19700000
   O     87.67000000    43.52000000   -21.49700000
   H     88.30000000    43.11000000   -20.90700000
   H     87.68000000    42.97000000   -22.28700000
   O     85.46000000    47.37000000   -19.65700000
   H     86.01000000    47.91000000   -19.08700000
   H     84.66000000    47.89000000   -19.78700000
   O     85.23000000    44.28000000   -20.36700000
   H     85.49000000    44.55000000   -19.47700000
   H     84.66000000    43.52000000   -20.22700000
   O     86.11000000    49.27000000   -22.18700000
   H     85.89000000    49.97000000   -21.55700000
   H     87.06000000    49.34000000   -22.29700000

Ca 1.00



