%chk=loop1.cluster120.chk
%nprocshared=20
%mem=10GB
%nosave
#b3lyp/svp scf=(tight,noincore,xqc) Test 
#IOP(5/87=12) Density=Current Pop=(MK,readradii) iop(6/33=2) iop(6/42=6)

loop1.cluster120 

   0  1 
   C     46.22000000    76.30000000    20.64000000
   C     46.93000000    75.71000000    21.85000000
   O     48.10000000    75.86000000    22.19000000
   H     45.31800000    76.81900000    20.96600000
   H     46.88200000    77.00500000    20.13700000
   H     45.94900000    75.50000000    19.95100000
   N     46.23000000    74.83000000    22.56000000
   C     46.69000000    74.26000000    23.81000000
   C     47.26000000    72.87000000    23.63000000
   O     48.01000000    72.38000000    24.47000000
   C     45.58000000    74.22000000    24.86000000
   C     44.19000000    73.68000000    24.56000000
   O     43.66000000    74.00000000    23.48000000
   O     43.67000000    72.89000000    25.38000000
   H     45.27000000    74.77000000    22.25000000
   H     47.43000000    74.91000000    24.29000000
   H     45.43000000    75.19000000    25.33000000
   H     45.89000000    73.49000000    25.61000000
   N     46.89000000    72.18000000    22.54000000
   C     47.11000000    70.78000000    22.22000000
   C     48.29000000    70.55000000    21.28000000
   O     48.47000000    71.33000000    20.35000000
   C     45.85000000    70.29000000    21.51000000
   C     44.57000000    70.86000000    22.12000000
   C     43.32000000    70.14000000    21.63000000
   C     42.27000000    70.29000000    22.73000000
   N     41.87000000    71.68000000    23.02000000
   H     46.30000000    72.72000000    21.93000000
   H     47.19000000    70.29000000    23.18000000
   H     45.82000000    69.21000000    21.66000000
   H     45.99000000    70.60000000    20.48000000
   H     44.41000000    71.89000000    21.81000000
   H     44.62000000    70.90000000    23.21000000
   H     43.47000000    69.07000000    21.49000000
   H     42.93000000    70.60000000    20.73000000
   H     42.58000000    69.78000000    23.64000000
   H     41.34000000    69.81000000    22.42000000
   H     42.61000000    72.24000000    23.41000000
   H     41.62000000    72.27000000    22.24000000
   H     41.16000000    71.75000000    23.74000000
   N     49.27000000    69.71000000    21.62000000
   C     49.35000000    68.82000000    22.76000000
   C     50.76000000    68.75000000    23.34000000
   O     51.24000000    67.63000000    23.50000000
   C     48.71000000    67.50000000    22.34000000
   C     48.99000000    66.87000000    20.98000000
   O     50.18000000    66.82000000    20.59000000
   O     48.03000000    66.53000000    20.25000000
   H     50.05000000    69.73000000    20.97000000
   H     48.71000000    69.22000000    23.54000000
   H     47.63000000    67.61000000    22.35000000
   H     48.97000000    66.74000000    23.08000000
   N     51.52000000    69.80000000    23.63000000
   C     51.16000000    71.20000000    23.55000000
   C     52.24000000    71.91000000    24.36000000
   O     53.25000000    71.43000000    24.86000000
   H     52.50000000    69.60000000    23.80000000
   H     50.15000000    71.33000000    23.92000000
   H     51.28000000    71.52000000    22.51000000
   N     52.16000000    73.23000000    24.51000000
   C     51.17000000    74.17000000    24.03000000
   C     51.00000000    75.45000000    24.83000000
   O     51.86000000    75.90000000    25.58000000
   C     51.48000000    74.50000000    22.57000000
   C     52.96000000    74.60000000    22.23000000
   O     53.29000000    73.93000000    21.23000000
   O     53.76000000    75.15000000    23.02000000
   H     52.93000000    73.67000000    25.01000000
   H     50.20000000    73.66000000    24.03000000
   H     50.96000000    75.42000000    22.31000000
   H     51.06000000    73.71000000    21.94000000
   N     49.85000000    76.10000000    24.63000000
   C     49.64000000    77.46000000    25.11000000
   C     50.20000000    78.48000000    24.13000000
   O     49.74000000    79.61000000    23.94000000
   H     49.10000000    75.70000000    24.09000000
   H     50.24000000    77.50000000    26.01000000
   H     48.62000000    77.69000000    25.41000000
   N     51.22000000    78.12000000    23.36000000
   C     52.00000000    78.99000000    22.50000000
   C     51.93000000    78.65000000    21.01000000
   O     51.84000000    77.46000000    20.72000000
   C     53.48000000    78.97000000    22.89000000
   C     53.70000000    79.16000000    24.39000000
   O     54.08000000    80.13000000    22.39000000
   H     51.49000000    77.16000000    23.55000000
   H     51.63000000    80.01000000    22.57000000
   H     54.00000000    78.15000000    22.40000000
   H     54.90000000    79.85000000    21.97000000
   H     53.14000000    80.04000000    24.73000000
   H     53.33000000    78.31000000    24.95000000
   H     54.77000000    79.14000000    24.62000000
   N     51.99000000    79.61000000    20.08000000
   C     51.69000000    79.39000000    18.68000000
   C     52.69000000    80.15000000    17.83000000
   O     52.86000000    81.35000000    18.05000000
   C     50.22000000    79.67000000    18.41000000
   C     49.76000000    79.37000000    16.98000000
   C     49.65000000    81.03000000    18.78000000
   C     49.96000000    80.34000000    15.83000000
   H     52.34000000    80.51000000    20.37000000
   H     51.77000000    78.33000000    18.43000000
   H     49.68000000    78.91000000    18.97000000
   H     48.69000000    79.19000000    17.03000000
   H     50.25000000    78.45000000    16.65000000
   H     49.81000000    81.01000000    19.86000000
   H     50.17000000    81.90000000    18.37000000
   H     48.57000000    81.11000000    18.69000000
   H     50.98000000    80.69000000    16.01000000
   H     49.78000000    79.80000000    14.90000000
   H     49.31000000    81.21000000    15.89000000
   N     53.45000000    79.47000000    16.97000000
   C     54.48000000    80.05000000    16.12000000
   C     54.39000000    79.61000000    14.67000000
   O     55.11000000    80.14000000    13.83000000
   C     55.88000000    79.83000000    16.68000000
   C     56.28000000    78.37000000    16.42000000
   O     55.86000000    80.11000000    18.06000000
   H     53.30000000    78.48000000    16.94000000
   H     54.29000000    81.11000000    15.94000000
   H     56.59000000    80.45000000    16.13000000
   H     55.75000000    81.06000000    18.19000000
   H     56.24000000    77.98000000    15.40000000
   H     57.33000000    78.29000000    16.69000000
   H     55.88000000    77.70000000    17.18000000
   N     53.50000000    78.67000000    14.35000000
   C     53.26000000    78.08000000    13.05000000
   C     54.43000000    77.27000000    12.49000000
   O     55.49000000    77.23000000    13.11000000
   C     52.65000000    79.05000000    12.04000000
   C     51.41000000    79.78000000    12.55000000
   O     52.08000000    78.35000000    10.97000000
   H     52.92000000    78.40000000    15.13000000
   H     52.44000000    77.38000000    13.14000000
   H     53.40000000    79.75000000    11.65000000
   H     51.12000000    78.26000000    11.03000000
   H     50.71000000    79.08000000    13.01000000
   H     51.56000000    80.52000000    13.34000000
   H     50.98000000    80.42000000    11.78000000
   N     54.21000000    76.46000000    11.46000000
   C     55.15000000    75.81000000    10.58000000
   C     55.21000000    74.29000000    10.54000000
   O     56.01000000    73.67000000     9.83000000
   C     54.97000000    76.37000000     9.17000000
   C     55.08000000    77.89000000     9.10000000
   C     56.44000000    78.43000000     9.53000000
   C     56.87000000    79.74000000     8.88000000
   N     55.76000000    80.71000000     8.81000000
   H     53.27000000    76.49000000    11.08000000
   H     56.15000000    76.19000000    10.81000000
   H     53.96000000    76.17000000     8.82000000
   H     55.67000000    75.89000000     8.49000000
   H     54.23000000    78.32000000     9.63000000
   H     55.00000000    78.16000000     8.05000000
   H     57.28000000    77.73000000     9.50000000
   H     56.40000000    78.64000000    10.60000000
   H     57.30000000    79.59000000     7.90000000
   H     57.71000000    80.15000000     9.44000000
   H     56.06000000    81.54000000     8.31000000
   H     55.00000000    80.33000000     8.25000000
   H     55.47000000    81.07000000     9.71000000
   N     54.42000000    73.45000000    11.21000000
   C     53.14000000    73.65000000    11.87000000
   C     51.99000000    74.17000000    11.01000000
   O     51.23000000    75.02000000    11.48000000
   C     53.27000000    74.17000000    13.30000000
   C     53.06000000    72.96000000    14.20000000
   C     53.10000000    73.33000000    15.68000000
   O     52.13000000    73.08000000    16.42000000
   O     54.03000000    74.04000000    16.12000000
   H     54.64000000    72.50000000    10.95000000
   H     52.78000000    72.62000000    11.90000000
   H     52.54000000    74.96000000    13.50000000
   H     54.24000000    74.63000000    13.46000000
   H     53.84000000    72.21000000    14.04000000
   H     52.09000000    72.49000000    14.04000000
   N     51.88000000    73.78000000     9.74000000
   C     50.89000000    74.29000000     8.81000000
   H     50.02800000    74.66100000     9.36500000
   H     51.32300000    75.10300000     8.22700000
   H     50.57400000    73.49000000     8.14000000
   H     52.59000000    73.14000000     9.41000000
  Ca     53.43000000    73.14000000    18.77000000
   O     51.53000000    75.30000000    18.93000000
   H     51.86000000    75.99000000    19.50000000
   H     50.66000000    75.11000000    19.26000000
   O     55.99000000    72.57000000    18.11000000
   H     56.80000000    72.88000000    18.53000000
   H     56.28000000    71.85000000    17.55000000
   O     54.83000000    71.41000000    20.53000000
   H     55.78000000    71.29000000    20.54000000
   H     54.55000000    71.22000000    21.43000000
   O     51.58000000    71.33000000    19.10000000
   H     51.92000000    70.54000000    19.51000000
   H     50.78000000    71.05000000    18.65000000
   O     54.74000000    75.51000000    18.82000000
   H     54.73000000    76.06000000    19.60000000
   H     55.55000000    75.75000000    18.37000000

Ca 1.00



