%chk=loop1.cluster115.chk
%nprocshared=20
%mem=10GB
%nosave
#b3lyp/svp scf=(tight,noincore,xqc) Test 
#IOP(5/87=12) Density=Current Pop=(MK,readradii) iop(6/33=2) iop(6/42=6)

loop1.cluster115 

   0  1 
   C     46.61000000    39.51000000     8.58000000
   C     46.98000000    39.43000000     7.11000000
   O     47.88000000    40.11000000     6.62000000
   H     45.57400000    39.19900000     8.71100000
   H     47.26100000    38.85200000     9.15600000
   H     46.72800000    40.53600000     8.93000000
   N     46.38000000    38.49000000     6.38000000
   C     46.69000000    38.24000000     4.98000000
   C     45.97000000    39.17000000     4.02000000
   O     45.34000000    38.69000000     3.08000000
   C     46.31000000    36.79000000     4.70000000
   C     44.93000000    36.40000000     5.21000000
   O     44.25000000    35.62000000     4.51000000
   O     44.48000000    36.75000000     6.32000000
   H     45.55000000    38.01000000     6.70000000
   H     47.77000000    38.30000000     4.88000000
   H     47.13000000    36.17000000     5.08000000
   H     46.44000000    36.55000000     3.64000000
   N     45.95000000    40.48000000     4.27000000
   C     45.27000000    41.43000000     3.42000000
   C     46.14000000    42.67000000     3.20000000
   O     46.31000000    43.56000000     4.03000000
   C     43.97000000    41.82000000     4.11000000
   C     42.90000000    40.73000000     4.11000000
   C     42.14000000    40.71000000     2.79000000
   C     40.77000000    40.02000000     2.86000000
   N     40.94000000    38.63000000     3.32000000
   H     46.53000000    40.88000000     5.00000000
   H     45.13000000    40.99000000     2.43000000
   H     43.51000000    42.63000000     3.55000000
   H     44.14000000    42.08000000     5.15000000
   H     42.23000000    41.02000000     4.92000000
   H     43.33000000    39.76000000     4.35000000
   H     42.78000000    40.23000000     2.05000000
   H     42.13000000    41.65000000     2.24000000
   H     40.26000000    40.03000000     1.90000000
   H     40.20000000    40.59000000     3.59000000
   H     41.73000000    38.21000000     2.87000000
   H     41.22000000    38.56000000     4.29000000
   H     40.14000000    38.04000000     3.16000000
   N     46.93000000    42.86000000     2.14000000
   C     47.26000000    42.02000000     1.00000000
   C     46.17000000    41.73000000    -0.03000000
   O     45.00000000    41.68000000     0.34000000
   C     47.97000000    40.73000000     1.41000000
   C     49.23000000    40.98000000     2.23000000
   O     50.36000000    40.88000000     1.71000000
   O     49.09000000    41.24000000     3.45000000
   H     47.12000000    43.84000000     2.03000000
   H     47.99000000    42.62000000     0.46000000
   H     48.19000000    40.17000000     0.50000000
   H     47.25000000    40.01000000     1.80000000
   N     46.48000000    41.63000000    -1.32000000
   C     47.81000000    41.68000000    -1.88000000
   C     47.96000000    41.29000000    -3.35000000
   O     47.63000000    42.13000000    -4.18000000
   H     45.67000000    41.65000000    -1.93000000
   H     48.51000000    41.11000000    -1.26000000
   H     48.10000000    42.72000000    -1.81000000
   N     48.18000000    40.03000000    -3.73000000
   C     48.26000000    38.81000000    -2.95000000
   C     46.92000000    38.24000000    -2.51000000
   O     46.08000000    37.99000000    -3.37000000
   C     48.85000000    37.70000000    -3.83000000
   C     49.15000000    36.40000000    -3.09000000
   O     49.29000000    36.40000000    -1.85000000
   O     49.12000000    35.32000000    -3.72000000
   H     48.34000000    39.94000000    -4.72000000
   H     48.95000000    38.90000000    -2.12000000
   H     49.75000000    38.10000000    -4.29000000
   H     48.17000000    37.51000000    -4.66000000
   N     46.80000000    37.95000000    -1.21000000
   C     45.69000000    37.40000000    -0.47000000
   C     46.21000000    36.39000000     0.54000000
   O     45.51000000    35.91000000     1.43000000
   H     47.58000000    38.16000000    -0.60000000
   H     44.92000000    36.95000000    -1.11000000
   H     45.15000000    38.18000000     0.05000000
   N     47.50000000    36.06000000     0.46000000
   C     48.32000000    35.69000000     1.59000000
   C     49.23000000    36.84000000     2.02000000
   O     49.62000000    37.68000000     1.21000000
   C     49.15000000    34.46000000     1.25000000
   C     48.23000000    33.29000000     0.92000000
   O     50.01000000    34.04000000     2.29000000
   H     48.03000000    36.21000000    -0.38000000
   H     47.70000000    35.39000000     2.44000000
   H     49.68000000    34.68000000     0.33000000
   H     49.51000000    33.75000000     3.06000000
   H     47.72000000    32.84000000     1.77000000
   H     47.55000000    33.65000000     0.15000000
   H     48.76000000    32.43000000     0.50000000
   N     49.58000000    36.87000000     3.30000000
   C     50.46000000    37.82000000     3.95000000
   C     51.84000000    37.87000000     3.32000000
   O     52.55000000    38.86000000     3.39000000
   C     50.53000000    37.49000000     5.44000000
   C     51.05000000    38.62000000     6.32000000
   C     51.21000000    36.14000000     5.69000000
   C     50.78000000    38.52000000     7.82000000
   H     49.24000000    36.11000000     3.88000000
   H     50.00000000    38.80000000     3.80000000
   H     49.55000000    37.30000000     5.88000000
   H     50.49000000    39.49000000     5.97000000
   H     52.10000000    38.83000000     6.14000000
   H     50.99000000    35.97000000     6.75000000
   H     50.86000000    35.32000000     5.08000000
   H     52.26000000    36.18000000     5.42000000
   H     49.83000000    38.02000000     7.99000000
   H     51.59000000    37.97000000     8.30000000
   H     50.71000000    39.48000000     8.32000000
   N     52.19000000    36.78000000     2.62000000
   C     53.53000000    36.41000000     2.19000000
   C     54.54000000    36.31000000     3.32000000
   O     55.13000000    35.24000000     3.49000000
   C     53.91000000    37.24000000     0.96000000
   C     55.18000000    36.76000000     0.27000000
   O     54.13000000    38.60000000     1.27000000
   H     51.57000000    35.99000000     2.66000000
   H     53.59000000    35.41000000     1.76000000
   H     53.07000000    37.13000000     0.27000000
   H     54.43000000    38.93000000     0.42000000
   H     55.13000000    35.68000000     0.14000000
   H     55.27000000    37.22000000    -0.71000000
   H     56.05000000    36.97000000     0.90000000
   N     54.84000000    37.40000000     4.03000000
   C     55.72000000    37.41000000     5.18000000
   C     57.21000000    37.19000000     4.94000000
   O     57.65000000    36.46000000     4.06000000
   C     55.19000000    36.49000000     6.27000000
   C     55.60000000    36.88000000     7.69000000
   O     55.54000000    35.13000000     6.18000000
   H     54.26000000    38.20000000     3.83000000
   H     55.56000000    38.41000000     5.58000000
   H     54.10000000    36.50000000     6.18000000
   H     55.32000000    34.94000000     5.26000000
   H     54.84000000    36.53000000     8.39000000
   H     56.55000000    36.46000000     8.01000000
   H     55.69000000    37.95000000     7.86000000
   N     58.01000000    37.78000000     5.84000000
   C     59.45000000    37.85000000     5.78000000
   C     60.16000000    39.09000000     5.25000000
   O     61.22000000    38.95000000     4.64000000
   C     60.03000000    37.45000000     7.13000000
   C     59.81000000    36.00000000     7.57000000
   C     60.19000000    34.99000000     6.49000000
   C     60.24000000    33.57000000     7.03000000
   N     60.26000000    32.63000000     5.90000000
   H     57.67000000    38.29000000     6.64000000
   H     59.79000000    37.13000000     5.03000000
   H     59.60000000    38.12000000     7.87000000
   H     61.09000000    37.68000000     7.05000000
   H     58.75000000    35.90000000     7.80000000
   H     60.41000000    35.90000000     8.47000000
   H     61.07000000    35.39000000     6.00000000
   H     59.47000000    34.98000000     5.68000000
   H     59.36000000    33.38000000     7.65000000
   H     61.11000000    33.44000000     7.67000000
   H     61.18000000    32.58000000     5.48000000
   H     60.06000000    31.67000000     6.17000000
   H     59.61000000    32.91000000     5.19000000
   N     59.77000000    40.35000000     5.41000000
   C     58.60000000    40.94000000     6.03000000
   C     58.36000000    40.56000000     7.48000000
   O     57.44000000    39.84000000     7.86000000
   C     57.33000000    40.93000000     5.18000000
   C     56.15000000    41.87000000     5.43000000
   C     55.04000000    41.74000000     4.39000000
   O     54.96000000    40.73000000     3.65000000
   O     54.12000000    42.58000000     4.44000000
   H     60.46000000    41.01000000     5.07000000
   H     58.69000000    42.01000000     6.20000000
   H     56.89000000    39.93000000     5.23000000
   H     57.63000000    41.19000000     4.17000000
   H     56.55000000    42.88000000     5.55000000
   H     55.78000000    41.46000000     6.37000000
   N     59.06000000    41.31000000     8.34000000
   C     58.81000000    41.28000000     9.76000000
   H     57.76300000    41.03300000     9.93900000
   H     59.44500000    40.52600000    10.22500000
   H     59.03100000    42.25700000    10.18900000
   H     59.74000000    42.01000000     8.09000000
  Ca     52.82000000    41.40000000     2.42000000
   O     53.11000000    40.82000000    -0.18700000
   H     53.70000000    40.63000000    -0.91700000
   H     52.24000000    40.60000000    -0.51700000
   O     51.42000000    41.53000000     4.72000000
   H     51.34000000    42.17000000     5.43000000
   H     50.53000000    41.42000000     4.39000000
   O     51.74000000    43.85000000     2.10000000
   H     50.97000000    43.88000000     2.67000000
   H     51.95000000    44.77000000     1.93000000
   O     54.68000000    43.29000000     1.50000000
   H     55.56000000    42.92000000     1.40000000
   H     54.81000000    44.09000000     2.01000000

Ca 1.00



