%chk=loop3.cluster134.chk
%nprocshared=20
%mem=10GB
%nosave
#b3lyp/svp scf=(tight,noincore,xqc) Test 
#IOP(5/87=12) Density=Current Pop=(MK,readradii) iop(6/33=2) iop(6/42=6)

loop3.cluster134 

   0  1 
   C     46.36000000    28.04000000    14.41000000
   C     45.70000000    29.28000000    15.00000000
   O     45.57000000    30.34000000    14.39000000
   H     47.34300000    27.90300000    14.86100000
   H     45.74200000    27.16600000    14.61500000
   H     46.46900000    28.16400000    13.33300000
   N     45.38000000    29.14000000    16.28000000
   C     44.72000000    30.23000000    16.97000000
   C     43.22000000    30.02000000    17.18000000
   O     42.79000000    28.88000000    17.35000000
   C     45.44000000    30.58000000    18.27000000
   C     46.93000000    30.84000000    18.08000000
   O     47.23000000    31.63000000    17.16000000
   O     47.76000000    30.40000000    18.92000000
   H     45.59000000    28.32000000    16.84000000
   H     44.76000000    31.14000000    16.37000000
   H     45.29000000    29.82000000    19.03000000
   H     44.97000000    31.50000000    18.61000000
   N     42.41000000    31.07000000    17.07000000
   C     40.97000000    31.15000000    17.24000000
   C     40.42000000    30.72000000    18.59000000
   O     39.21000000    30.49000000    18.66000000
   C     40.25000000    30.75000000    15.96000000
   C     40.33000000    31.77000000    14.83000000
   C     39.18000000    31.66000000    13.85000000
   C     39.45000000    32.53000000    12.63000000
   N     38.41000000    32.28000000    11.62000000
   H     42.84000000    31.94000000    16.80000000
   H     40.78000000    32.22000000    17.32000000
   H     39.22000000    30.49000000    16.19000000
   H     40.66000000    29.80000000    15.60000000
   H     41.26000000    31.80000000    14.26000000
   H     40.28000000    32.73000000    15.36000000
   H     38.24000000    31.89000000    14.36000000
   H     39.16000000    30.63000000    13.47000000
   H     40.45000000    32.25000000    12.30000000
   H     39.54000000    33.59000000    12.90000000
   H     38.83000000    32.49000000    10.72000000
   H     38.02000000    31.35000000    11.64000000
   H     37.64000000    32.94000000    11.64000000
   N     41.25000000    30.69000000    19.64000000
   C     40.85000000    30.51000000    21.02000000
   C     41.88000000    31.31000000    21.80000000
   O     43.08000000    31.07000000    21.66000000
   C     41.01000000    29.06000000    21.47000000
   C     40.37000000    28.58000000    22.76000000
   O     39.65000000    29.31000000    23.48000000
   O     40.66000000    27.45000000    23.21000000
   H     42.22000000    30.91000000    19.50000000
   H     39.83000000    30.80000000    21.25000000
   H     42.06000000    28.78000000    21.50000000
   H     40.44000000    28.45000000    20.76000000
   N     41.49000000    32.23000000    22.69000000
   C     42.38000000    33.06000000    23.49000000
   C     42.82000000    32.31000000    24.74000000
   O     42.05000000    32.16000000    25.69000000
   H     40.52000000    32.44000000    22.91000000
   H     41.87000000    33.99000000    23.73000000
   H     43.22000000    33.29000000    22.84000000
   N     44.06000000    31.82000000    24.72000000
   C     44.64000000    31.00000000    25.76000000
   C     45.95000000    31.63000000    26.23000000
   O     46.53000000    31.13000000    27.20000000
   C     44.80000000    29.57000000    25.26000000
   C     43.49000000    28.79000000    25.14000000
   N     43.16000000    28.29000000    23.95000000
   O     42.71000000    28.49000000    26.04000000
   H     44.50000000    31.79000000    23.82000000
   H     43.96000000    30.93000000    26.61000000
   H     45.34000000    28.96000000    25.98000000
   H     45.33000000    29.50000000    24.31000000
   H     43.68000000    28.59000000    23.14000000
   H     42.33000000    27.71000000    23.92000000
   N     46.47000000    32.60000000    25.49000000
   C     47.78000000    33.17000000    25.74000000
   C     48.78000000    32.04000000    25.88000000
   O     48.78000000    31.08000000    25.10000000
   H     45.88000000    33.06000000    24.81000000
   H     47.83000000    33.65000000    26.72000000
   H     48.19000000    33.83000000    24.98000000
   N     49.57000000    32.06000000    26.95000000
   C     50.72000000    31.23000000    27.26000000
   C     50.46000000    29.78000000    27.66000000
   O     51.24000000    29.20000000    28.41000000
   C     51.78000000    31.42000000    26.18000000
   C     52.16000000    32.83000000    25.79000000
   C     51.93000000    33.24000000    24.47000000
   C     52.61000000    33.78000000    26.71000000
   C     52.01000000    34.60000000    24.13000000
   C     52.73000000    35.12000000    26.34000000
   C     52.42000000    35.58000000    25.05000000
   O     52.43000000    36.89000000    24.67000000
   H     49.50000000    32.86000000    27.56000000
   H     51.17000000    31.62000000    28.18000000
   H     51.50000000    30.75000000    25.37000000
   H     52.69000000    31.04000000    26.64000000
   H     51.59000000    32.61000000    23.67000000
   H     52.76000000    33.48000000    27.74000000
   H     51.95000000    34.82000000    23.07000000
   H     52.94000000    35.85000000    27.11000000
   H     52.67000000    37.40000000    25.45000000
   N     49.36000000    29.17000000    27.21000000
   C     48.79000000    27.89000000    27.58000000
   C     48.36000000    27.70000000    29.02000000
   O     47.29000000    27.16000000    29.29000000
   C     49.73000000    26.79000000    27.06000000
   C     50.17000000    27.01000000    25.61000000
   C     48.94000000    25.51000000    27.29000000
   C     51.21000000    26.04000000    25.06000000
   H     48.74000000    29.72000000    26.64000000
   H     47.85000000    27.82000000    27.04000000
   H     50.64000000    26.75000000    27.66000000
   H     50.66000000    27.98000000    25.54000000
   H     49.31000000    27.05000000    24.94000000
   H     49.49000000    24.65000000    26.89000000
   H     48.78000000    25.23000000    28.33000000
   H     48.00000000    25.60000000    26.74000000
   H     52.08000000    26.02000000    25.72000000
   H     50.86000000    25.02000000    24.88000000
   H     51.60000000    26.39000000    24.11000000
   N     49.17000000    28.17000000    29.97000000
   C     48.78000000    28.54000000    31.31000000
   C     48.49000000    27.42000000    32.30000000
   O     47.85000000    27.68000000    33.32000000
   C     49.80000000    29.51000000    31.89000000
   O     49.85000000    30.71000000    31.15000000
   H     49.99000000    28.65000000    29.60000000
   H     47.84000000    29.10000000    31.30000000
   H     50.82000000    29.13000000    31.87000000
   H     49.50000000    29.73000000    32.92000000
   H     50.63000000    31.19000000    31.43000000
   N     48.72000000    26.17000000    31.91000000
   C     48.21000000    25.00000000    32.60000000
   C     46.73000000    25.10000000    32.92000000
   O     46.25000000    24.97000000    34.05000000
   C     49.15000000    24.56000000    33.72000000
   H     49.24000000    26.06000000    31.05000000
   H     48.35000000    24.23000000    31.84000000
   H     49.45000000    25.34000000    34.42000000
   H     48.61000000    23.89000000    34.39000000
   H     50.06000000    24.12000000    33.31000000
   N     45.97000000    25.23000000    31.83000000
   C     44.54000000    25.43000000    31.87000000
   C     43.75000000    24.67000000    30.81000000
   O     44.33000000    24.36000000    29.77000000
   C     44.12000000    26.88000000    31.69000000
   H     46.38000000    25.23000000    30.91000000
   H     44.07000000    25.05000000    32.78000000
   H     44.59000000    27.24000000    30.77000000
   H     43.04000000    26.87000000    31.49000000
   H     44.33000000    27.36000000    32.64000000
   N     42.49000000    24.32000000    31.05000000
   C     41.67000000    23.41000000    30.27000000
   C     42.28000000    22.02000000    30.10000000
   O     42.20000000    21.45000000    29.01000000
   C     41.14000000    24.01000000    28.97000000
   C     40.56000000    25.41000000    29.14000000
   C     40.08000000    26.03000000    27.83000000
   O     39.04000000    26.71000000    27.81000000
   O     40.66000000    25.85000000    26.73000000
   H     42.06000000    24.82000000    31.82000000
   H     40.85000000    23.25000000    30.96000000
   H     40.49000000    23.26000000    28.53000000
   H     41.93000000    24.07000000    28.23000000
   H     41.38000000    26.01000000    29.52000000
   H     39.75000000    25.46000000    29.86000000
   N     42.95000000    21.66000000    31.20000000
   C     43.75000000    20.46000000    31.25000000
   H     44.69000000    20.67200000    31.75900000
   H     43.21000000    19.68500000    31.79400000
   H     43.95500000    20.11700000    30.23600000
   H     42.92000000    22.26000000    32.02000000
  Ca     39.10000000    27.28000000    25.23000000
   O     39.26000000    29.50000000    26.89000000
   H     39.79000000    30.15000000    27.35000000
   H     38.38000000    29.60000000    27.26000000
   O     40.07000000    24.43000000    24.37000000
   H     40.82000000    24.42000000    24.96000000
   H     40.44000000    24.24000000    23.51000000
   O     37.82000000    26.45000000    22.91000000
   H     38.62000000    26.34000000    22.39000000
   H     37.12000000    26.18000000    22.33000000
   O     36.43000000    28.38000000    25.33000000
   H     35.63000000    27.88000000    25.16000000
   H     36.16000000    29.10000000    25.89000000
   O     37.28000000    25.31000000    25.79000000
   H     37.66000000    24.66000000    26.38000000
   H     36.83000000    24.79000000    25.13000000

Ca 1.00



