%chk=loop4.cluster37.chk
%nprocshared=20
%mem=10GB
%nosave
#b3lyp/svp scf=(tight,noincore,xqc) Test 
#IOP(5/87=12) Density=Current Pop=(MK,readradii) iop(6/33=2) iop(6/42=6)

loop4.cluster37 

   -3  1 
   C     59.73000000    61.33000000    76.04000000
   C     60.27000000    60.24000000    76.95000000
   O     61.40000000    59.83000000    76.69000000
   H     58.82100000    61.74700000    76.47300000
   H     60.47600000    62.11800000    75.93400000
   H     59.50500000    60.90800000    75.06100000
   N     59.53000000    59.70000000    77.92000000
   C     60.10000000    58.67000000    78.76000000
   C     61.27000000    59.17000000    79.59000000
   O     61.95000000    58.27000000    80.07000000
   C     60.25000000    57.39000000    77.95000000
   C     59.15000000    57.16000000    76.92000000
   O     59.37000000    57.17000000    75.69000000
   O     57.95000000    57.20000000    77.25000000
   H     58.75000000    60.23000000    78.28000000
   H     59.38000000    58.43000000    79.55000000
   H     60.40000000    56.48000000    78.53000000
   H     61.14000000    57.59000000    77.35000000
   N     61.46000000    60.47000000    79.83000000
   C     62.41000000    61.09000000    80.73000000
   C     61.60000000    61.76000000    81.84000000
   O     60.61000000    62.45000000    81.62000000
   C     63.14000000    62.15000000    79.92000000
   C     63.88000000    61.69000000    78.66000000
   C     64.22000000    62.66000000    80.87000000
   C     64.79000000    60.48000000    78.76000000
   H     60.81000000    61.15000000    79.45000000
   H     63.04000000    60.36000000    81.23000000
   H     62.42000000    62.94000000    79.73000000
   H     64.53000000    62.50000000    78.33000000
   H     63.24000000    61.66000000    77.78000000
   H     63.78000000    62.96000000    81.82000000
   H     64.93000000    61.88000000    81.16000000
   H     64.76000000    63.51000000    80.45000000
   H     65.78000000    60.63000000    79.20000000
   H     64.17000000    59.74000000    79.26000000
   H     64.97000000    60.12000000    77.74000000
   N     62.00000000    61.69000000    83.11000000
   C     62.95000000    60.84000000    83.80000000
   C     62.46000000    59.41000000    83.99000000
   O     63.24000000    58.46000000    83.92000000
   C     63.25000000    61.53000000    85.13000000
   C     63.78000000    62.94000000    84.93000000
   O     64.99000000    63.17000000    84.68000000
   O     62.92000000    63.83000000    84.76000000
   H     61.42000000    62.20000000    83.77000000
   H     63.87000000    60.76000000    83.22000000
   H     64.06000000    60.98000000    85.62000000
   H     62.37000000    61.43000000    85.76000000
   N     61.13000000    59.29000000    84.12000000
   C     60.45000000    58.02000000    83.94000000
   C     60.82000000    56.87000000    84.87000000
   O     60.55000000    56.95000000    86.07000000
   H     60.61000000    60.13000000    84.31000000
   H     60.72000000    57.66000000    82.95000000
   H     59.37000000    58.14000000    83.95000000
   N     61.37000000    55.80000000    84.30000000
   C     61.73000000    54.59000000    85.01000000
   C     63.22000000    54.28000000    84.92000000
   O     63.72000000    53.36000000    85.56000000
   C     60.87000000    53.47000000    84.44000000
   C     60.83000000    53.23000000    82.93000000
   O     59.66000000    53.21000000    82.47000000
   O     61.81000000    52.94000000    82.22000000
   H     61.39000000    55.88000000    83.29000000
   H     61.51000000    54.74000000    86.06000000
   H     59.86000000    53.76000000    84.71000000
   H     61.20000000    52.59000000    84.99000000
   N     63.97000000    54.99000000    84.06000000
   C     65.36000000    54.68000000    83.82000000
   C     65.61000000    53.86000000    82.56000000
   O     66.66000000    53.95000000    81.93000000
   H     63.52000000    55.71000000    83.53000000
   H     65.75000000    54.24000000    84.74000000
   H     65.87000000    55.64000000    83.70000000
   N     64.65000000    53.01000000    82.19000000
   C     64.87000000    51.92000000    81.26000000
   C     65.28000000    52.36000000    79.86000000
   O     66.03000000    51.70000000    79.14000000
   C     65.59000000    50.73000000    81.88000000
   C     64.79000000    49.77000000    82.76000000
   C     65.54000000    48.47000000    83.05000000
   N     64.88000000    47.47000000    83.64000000
   O     66.72000000    48.23000000    82.80000000
   H     63.77000000    52.96000000    82.69000000
   H     63.87000000    51.56000000    81.03000000
   H     66.38000000    51.11000000    82.53000000
   H     66.16000000    50.24000000    81.09000000
   H     63.91000000    49.44000000    82.20000000
   H     64.48000000    50.25000000    83.68000000
   H     63.91000000    47.55000000    83.91000000
   H     65.46000000    46.64000000    83.64000000
   N     64.75000000    53.48000000    79.36000000
   C     64.81000000    53.99000000    78.01000000
   C     64.13000000    53.00000000    77.07000000
   O     62.94000000    52.75000000    77.22000000
   C     64.24000000    55.39000000    77.83000000
   C     65.08000000    56.33000000    78.69000000
   C     64.26000000    55.90000000    76.40000000
   H     64.03000000    53.88000000    79.95000000
   H     65.87000000    54.06000000    77.74000000
   H     63.23000000    55.32000000    78.22000000
   H     65.14000000    55.97000000    79.72000000
   H     66.08000000    56.50000000    78.29000000
   H     64.61000000    57.31000000    78.76000000
   H     63.64000000    55.27000000    75.77000000
   H     63.83000000    56.91000000    76.37000000
   H     65.30000000    55.90000000    76.05000000
   N     64.90000000    52.67000000    76.03000000
   C     64.49000000    51.78000000    74.96000000
   C     64.85000000    52.32000000    73.59000000
   O     65.81000000    53.07000000    73.42000000
   C     65.22000000    50.46000000    75.17000000
   C     64.64000000    49.26000000    74.43000000
   N     63.37000000    48.93000000    74.69000000
   O     65.29000000    48.52000000    73.71000000
   H     65.89000000    52.91000000    76.03000000
   H     63.41000000    51.65000000    74.87000000
   H     65.23000000    50.15000000    76.22000000
   H     66.26000000    50.50000000    74.84000000
   H     62.74000000    49.60000000    75.12000000
   H     63.02000000    48.07000000    74.30000000
   N     64.23000000    51.78000000    72.53000000
   C     64.40000000    51.97000000    71.11000000
   C     63.09000000    51.71000000    70.39000000
   O     63.05000000    51.42000000    69.20000000
   C     65.46000000    50.94000000    70.73000000
   C     66.20000000    51.42000000    69.50000000
   C     66.99000000    52.57000000    69.54000000
   C     66.25000000    50.62000000    68.35000000
   C     67.79000000    52.98000000    68.46000000
   C     67.00000000    51.03000000    67.23000000
   C     67.73000000    52.23000000    67.27000000
   O     68.41000000    52.65000000    66.16000000
   H     63.52000000    51.10000000    72.77000000
   H     64.67000000    53.01000000    70.92000000
   H     64.94000000    50.01000000    70.47000000
   H     66.14000000    50.80000000    71.57000000
   H     67.02000000    53.13000000    70.46000000
   H     65.54000000    49.81000000    68.28000000
   H     68.39000000    53.86000000    68.61000000
   H     66.76000000    50.48000000    66.34000000
   H     68.27000000    52.04000000    65.44000000
   N     61.95000000    51.85000000    71.08000000
   C     60.62000000    51.61000000    70.56000000
   C     60.23000000    52.57000000    69.45000000
   O     59.65000000    52.14000000    68.45000000
   C     59.47000000    51.71000000    71.56000000
   C     59.47000000    50.66000000    72.67000000
   C     58.52000000    51.13000000    73.76000000
   O     57.34000000    50.74000000    73.71000000
   O     58.94000000    51.82000000    74.71000000
   H     62.01000000    52.35000000    71.95000000
   H     60.51000000    50.64000000    70.07000000
   H     58.53000000    51.57000000    71.03000000
   H     59.43000000    52.73000000    71.95000000
   H     60.47000000    50.49000000    73.06000000
   H     59.11000000    49.75000000    72.18000000
   N     60.46000000    53.88000000    69.51000000
   C     60.91000000    54.74000000    70.59000000
   C     62.21000000    55.47000000    70.32000000
   O     62.81000000    55.34000000    69.25000000
   C     59.88000000    55.80000000    70.95000000
   C     58.49000000    55.36000000    71.41000000
   C     57.59000000    56.58000000    71.57000000
   O     57.68000000    57.27000000    72.61000000
   O     56.93000000    56.96000000    70.58000000
   H     60.65000000    54.29000000    68.61000000
   H     61.01000000    54.13000000    71.49000000
   H     59.82000000    56.42000000    70.05000000
   H     60.25000000    56.47000000    71.73000000
   H     58.54000000    55.02000000    72.44000000
   H     57.97000000    54.67000000    70.74000000
   N     62.75000000    56.16000000    71.34000000
   C     63.98000000    56.92000000    71.41000000
   H     64.75500000    56.41000000    70.83700000
   H     63.81700000    57.91500000    70.99500000
   H     64.29500000    57.00700000    72.45000000
   H     62.29000000    56.00000000    72.22000000
  Ca     56.84000000    57.04000000    74.95000000
   O     55.92000000    55.11000000    76.62000000
   H     56.31000000    54.26000000    76.42000000
   H     55.01000000    54.91000000    76.86000000
   O     58.49000000    54.51000000    75.07000000
   H     58.48000000    53.55000000    75.14000000
   H     59.28000000    54.77000000    75.53000000
   O     55.94000000    54.80000000    73.67000000
   H     55.16000000    54.90000000    73.12000000
   H     56.17000000    53.87000000    73.58000000

Ca 1.00



