%chk=loop2.cluster44.chk
%nprocshared=20
%mem=10GB
%nosave
#b3lyp/svp scf=(tight,noincore,xqc) Test 
#IOP(5/87=12) Density=Current Pop=(MK,readradii) iop(6/33=2) iop(6/42=6)

loop2.cluster44 

   -2  1 
   C     54.46000000    46.84000000    12.44000000
   C     55.24000000    47.69000000    11.45000000
   O     55.34000000    47.33000000    10.28000000
   H     53.47600000    46.61600000    12.02900000
   H     54.99700000    45.90900000    12.62300000
   H     54.34600000    47.38500000    13.37700000
   N     55.88000000    48.79000000    11.84000000
   C     56.61000000    49.67000000    10.96000000
   C     55.65000000    50.57000000    10.19000000
   O     54.50000000    50.76000000    10.58000000
   C     57.59000000    50.48000000    11.81000000
   C     58.68000000    51.15000000    10.98000000
   O     59.30000000    52.08000000    11.54000000
   O     59.00000000    50.69000000     9.87000000
   H     55.97000000    48.84000000    12.85000000
   H     57.15000000    49.07000000    10.22000000
   H     58.15000000    49.82000000    12.47000000
   H     57.07000000    51.27000000    12.35000000
   N     56.08000000    51.10000000     9.05000000
   C     55.29000000    52.15000000     8.43000000
   C     54.01000000    51.69000000     7.74000000
   O     53.85000000    50.51000000     7.43000000
   C     56.26000000    52.91000000     7.53000000
   H     57.03000000    50.99000000     8.74000000
   H     54.96000000    52.80000000     9.24000000
   H     55.80000000    53.86000000     7.25000000
   H     57.14000000    53.16000000     8.12000000
   H     56.61000000    52.39000000     6.65000000
   N     53.04000000    52.53000000     7.39000000
   C     52.95000000    53.98000000     7.49000000
   C     52.94000000    54.49000000     8.92000000
   O     52.48000000    53.78000000     9.81000000
   C     51.72000000    54.42000000     6.71000000
   C     50.38000000    53.89000000     7.21000000
   O     50.04000000    52.71000000     7.02000000
   O     49.70000000    54.65000000     7.94000000
   H     52.27000000    52.03000000     6.96000000
   H     53.84000000    54.34000000     6.96000000
   H     51.80000000    54.06000000     5.68000000
   H     51.80000000    55.50000000     6.61000000
   N     53.21000000    55.79000000     9.08000000
   C     53.40000000    56.42000000    10.38000000
   C     52.56000000    57.66000000    10.64000000
   O     53.09000000    58.76000000    10.58000000
   H     53.45000000    56.35000000     8.28000000
   H     54.44000000    56.73000000    10.39000000
   H     53.17000000    55.79000000    11.24000000
   N     51.25000000    57.55000000    10.88000000
   C     50.36000000    56.40000000    10.89000000
   C     50.49000000    55.61000000    12.19000000
   O     50.01000000    56.06000000    13.23000000
   C     48.92000000    56.78000000    10.58000000
   C     48.70000000    57.76000000     9.43000000
   N     48.96000000    57.37000000     8.19000000
   O     48.44000000    58.93000000     9.69000000
   H     50.78000000    58.43000000    11.04000000
   H     50.67000000    55.71000000    10.11000000
   H     48.50000000    57.23000000    11.48000000
   H     48.28000000    55.93000000    10.36000000
   H     49.39000000    56.46000000     8.04000000
   H     49.00000000    58.15000000     7.55000000
   N     51.11000000    54.43000000    12.22000000
   C     51.13000000    53.58000000    13.39000000
   C     49.76000000    52.98000000    13.67000000
   O     49.44000000    52.67000000    14.82000000
   H     51.62000000    54.20000000    11.38000000
   H     51.51000000    54.17000000    14.22000000
   H     51.86000000    52.83000000    13.09000000
   N     48.90000000    52.72000000    12.68000000
   C     47.56000000    52.22000000    12.88000000
   C     47.28000000    51.08000000    11.91000000
   O     48.06000000    50.87000000    10.98000000
   C     46.64000000    53.41000000    12.58000000
   C     46.74000000    54.61000000    13.53000000
   O     46.82000000    53.90000000    11.27000000
   H     49.18000000    52.90000000    11.73000000
   H     47.35000000    51.78000000    13.85000000
   H     45.60000000    53.12000000    12.64000000
   H     46.06000000    54.46000000    11.08000000
   H     46.86000000    54.19000000    14.53000000
   H     47.63000000    55.17000000    13.26000000
   H     45.86000000    55.26000000    13.50000000
   N     46.29000000    50.22000000    12.15000000
   C     46.33000000    48.88000000    11.60000000
   C     45.49000000    48.79000000    10.34000000
   O     44.34000000    49.20000000    10.25000000
   C     45.86000000    47.82000000    12.59000000
   C     46.84000000    47.47000000    13.72000000
   C     44.56000000    48.20000000    13.29000000
   C     46.68000000    46.16000000    14.48000000
   H     45.57000000    50.49000000    12.80000000
   H     47.34000000    48.54000000    11.34000000
   H     45.79000000    46.87000000    12.06000000
   H     46.90000000    48.30000000    14.43000000
   H     47.79000000    47.42000000    13.20000000
   H     44.20000000    47.36000000    13.89000000
   H     44.70000000    49.11000000    13.87000000
   H     43.80000000    48.33000000    12.52000000
   H     47.41000000    46.19000000    15.29000000
   H     45.64000000    46.02000000    14.75000000
   H     46.93000000    45.36000000    13.79000000
   N     46.00000000    48.03000000     9.36000000
   C     45.45000000    47.68000000     8.07000000
   C     46.02000000    46.36000000     7.56000000
   O     47.11000000    45.96000000     7.94000000
   C     45.68000000    48.85000000     7.11000000
   C     46.98000000    49.62000000     7.31000000
   O     46.93000000    50.70000000     7.94000000
   O     48.03000000    49.40000000     6.68000000
   H     46.93000000    47.66000000     9.50000000
   H     44.39000000    47.47000000     8.20000000
   H     44.85000000    49.56000000     7.09000000
   H     45.78000000    48.37000000     6.14000000
   N     45.21000000    45.68000000     6.74000000
   C     45.55000000    44.45000000     6.05000000
   C     45.66000000    43.30000000     7.04000000
   O     44.72000000    43.04000000     7.79000000
   C     44.49000000    44.11000000     5.02000000
   C     44.74000000    42.82000000     4.27000000
   C     44.06000000    41.64000000     4.61000000
   C     45.51000000    42.78000000     3.10000000
   C     44.16000000    40.49000000     3.84000000
   C     45.56000000    41.67000000     2.25000000
   C     44.92000000    40.49000000     2.66000000
   H     44.28000000    46.01000000     6.53000000
   H     46.45000000    44.66000000     5.47000000
   H     44.38000000    44.91000000     4.28000000
   H     43.53000000    44.08000000     5.53000000
   H     43.35000000    41.64000000     5.43000000
   H     46.06000000    43.63000000     2.73000000
   H     43.67000000    39.59000000     4.19000000
   H     46.20000000    41.71000000     1.38000000
   H     45.10000000    39.64000000     2.02000000
   N     46.85000000    42.73000000     7.23000000
   C     47.11000000    41.68000000     8.19000000
   C     47.96000000    42.16000000     9.36000000
   O     48.44000000    41.33000000    10.13000000
   C     47.93000000    40.70000000     7.37000000
   C     48.77000000    41.52000000     6.39000000
   C     47.85000000    42.72000000     6.18000000
   H     46.17000000    41.27000000     8.55000000
   H     48.56000000    40.01000000     7.93000000
   H     47.35000000    40.00000000     6.77000000
   H     49.73000000    41.81000000     6.82000000
   H     48.92000000    40.90000000     5.51000000
   H     48.47000000    43.61000000     6.05000000
   H     47.39000000    42.54000000     5.21000000
   N     48.31000000    43.44000000     9.50000000
   C     49.23000000    43.98000000    10.47000000
   C     48.94000000    43.49000000    11.89000000
   O     49.92000000    43.55000000    12.63000000
   C     49.19000000    45.51000000    10.43000000
   C     50.01000000    46.19000000     9.34000000
   C     50.02000000    47.71000000     9.39000000
   O     48.97000000    48.40000000     9.42000000
   O     51.09000000    48.34000000     9.30000000
   H     47.88000000    44.13000000     8.90000000
   H     50.24000000    43.61000000    10.35000000
   H     49.48000000    45.90000000    11.41000000
   H     48.20000000    45.88000000    10.19000000
   H     49.64000000    45.96000000     8.33000000
   H     51.02000000    45.81000000     9.43000000
   N     47.77000000    43.01000000    12.31000000
   C     47.58000000    42.53000000    13.67000000
   H     46.53000000    42.28200000    13.82400000
   H     48.19000000    41.64100000    13.83100000
   H     47.87600000    43.30700000    14.37500000
   H     46.96000000    43.04000000    11.72000000
  Ca     49.54000000    50.71000000     8.72000000
   O     51.76000000    51.28000000    10.30000000
   H     52.38000000    50.57000000    10.41000000
   H     52.30000000    52.07000000    10.24000000
   O     49.07000000    53.13000000     9.81000000
   H     49.25000000    53.77000000     9.12000000
   H     48.22000000    53.40000000    10.17000000
   O     51.38000000    50.22000000     6.90000000
   H     52.30000000    50.07000000     7.10000000
   H     51.23000000    49.76000000     6.08000000

Ca 1.00



