%chk=loop1.cluster111.chk
%nprocshared=20
%mem=10GB
%nosave
#b3lyp/svp scf=(tight,noincore,xqc) Test 
#IOP(5/87=12) Density=Current Pop=(MK,readradii) iop(6/33=2) iop(6/42=6)

loop1.cluster111 

   0  1 
   C     44.98000000    38.17000000     3.97000000
   C     45.28000000    37.76000000     2.53000000
   O     46.20000000    38.25000000     1.89000000
   H     43.93900000    37.94600000     4.20200000
   H     45.63000000    37.61700000     4.64900000
   H     45.15600000    39.23900000     4.08800000
   N     44.43000000    36.84000000     2.08000000
   C     44.44000000    36.17000000     0.79000000
   C     43.72000000    36.98000000    -0.27000000
   O     42.85000000    36.48000000    -0.97000000
   C     44.05000000    34.70000000     0.97000000
   C     42.71000000    34.45000000     1.64000000
   O     41.95000000    33.58000000     1.14000000
   O     42.52000000    34.98000000     2.75000000
   H     43.62000000    36.71000000     2.66000000
   H     45.47000000    36.07000000     0.46000000
   H     44.76000000    34.16000000     1.60000000
   H     44.06000000    34.19000000     0.01000000
   N     44.18000000    38.23000000    -0.45000000
   C     43.80000000    39.23000000    -1.42000000
   C     45.09000000    39.86000000    -1.92000000
   O     45.59000000    40.80000000    -1.30000000
   C     42.91000000    40.28000000    -0.75000000
   C     41.58000000    39.79000000    -0.19000000
   C     40.58000000    39.43000000    -1.28000000
   C     39.42000000    38.52000000    -0.88000000
   N     39.79000000    37.17000000    -0.44000000
   H     44.89000000    38.57000000     0.18000000
   H     43.24000000    38.78000000    -2.24000000
   H     42.77000000    41.04000000    -1.53000000
   H     43.49000000    40.69000000     0.07000000
   H     41.11000000    40.62000000     0.33000000
   H     41.75000000    38.91000000     0.44000000
   H     41.10000000    38.98000000    -2.13000000
   H     40.18000000    40.40000000    -1.59000000
   H     38.67000000    38.48000000    -1.66000000
   H     38.80000000    38.99000000    -0.13000000
   H     40.50000000    37.27000000     0.28000000
   H     39.02000000    36.69000000     0.00000000
   H     40.10000000    36.59000000    -1.21000000
   N     45.73000000    39.37000000    -2.98000000
   C     45.48000000    38.26000000    -3.88000000
   C     44.19000000    38.27000000    -4.70000000
   O     43.26000000    39.01000000    -4.40000000
   C     45.84000000    36.93000000    -3.23000000
   C     47.18000000    37.03000000    -2.52000000
   O     48.21000000    37.07000000    -3.23000000
   O     47.33000000    37.21000000    -1.29000000
   H     46.67000000    39.75000000    -3.06000000
   H     46.23000000    38.38000000    -4.65000000
   H     45.88000000    36.12000000    -3.95000000
   H     44.98000000    36.72000000    -2.59000000
   N     44.03000000    37.52000000    -5.79000000
   C     44.93000000    36.54000000    -6.35000000
   C     44.55000000    36.25000000    -7.79000000
   O     44.31000000    37.16000000    -8.59000000
   H     43.11000000    37.48000000    -6.22000000
   H     44.75000000    35.64000000    -5.76000000
   H     45.98000000    36.84000000    -6.31000000
   N     44.62000000    35.01000000    -8.27000000
   C     44.94000000    33.82000000    -7.51000000
   C     43.87000000    33.30000000    -6.56000000
   O     42.70000000    33.67000000    -6.70000000
   C     45.22000000    32.70000000    -8.52000000
   C     45.71000000    31.39000000    -7.93000000
   O     46.47000000    31.35000000    -6.93000000
   O     45.47000000    30.34000000    -8.57000000
   H     44.53000000    34.95000000    -9.28000000
   H     45.78000000    34.03000000    -6.86000000
   H     46.01000000    33.08000000    -9.17000000
   H     44.28000000    32.49000000    -9.02000000
   N     44.29000000    32.64000000    -5.48000000
   C     43.50000000    32.22000000    -4.34000000
   C     44.20000000    31.80000000    -3.06000000
   O     43.60000000    31.14000000    -2.22000000
   H     45.22000000    32.25000000    -5.57000000
   H     42.99000000    31.33000000    -4.72000000
   H     42.82000000    33.03000000    -4.09000000
   N     45.46000000    32.18000000    -2.81000000
   C     46.25000000    31.95000000    -1.63000000
   C     46.90000000    33.20000000    -1.05000000
   O     47.17000000    34.18000000    -1.75000000
   C     47.37000000    30.96000000    -1.96000000
   C     46.81000000    29.55000000    -2.10000000
   O     48.27000000    30.87000000    -0.88000000
   H     45.87000000    32.62000000    -3.62000000
   H     45.60000000    31.52000000    -0.87000000
   H     47.87000000    31.34000000    -2.86000000
   H     48.90000000    30.20000000    -1.16000000
   H     46.10000000    29.42000000    -2.91000000
   H     47.60000000    28.81000000    -2.24000000
   H     46.27000000    29.32000000    -1.18000000
   N     47.10000000    33.20000000     0.27000000
   C     47.80000000    34.23000000     1.00000000
   C     49.14000000    34.59000000     0.38000000
   O     49.60000000    35.73000000     0.49000000
   C     47.99000000    33.80000000     2.45000000
   C     48.64000000    34.77000000     3.43000000
   C     48.66000000    32.46000000     2.73000000
   C     47.93000000    36.12000000     3.57000000
   H     46.83000000    32.32000000     0.69000000
   H     47.13000000    35.08000000     0.86000000
   H     46.98000000    33.65000000     2.83000000
   H     49.62000000    35.01000000     3.04000000
   H     48.65000000    34.37000000     4.45000000
   H     49.73000000    32.54000000     2.53000000
   H     48.60000000    32.15000000     3.77000000
   H     48.13000000    31.70000000     2.16000000
   H     48.49000000    36.83000000     4.18000000
   H     48.00000000    36.47000000     2.54000000
   H     46.91000000    35.89000000     3.87000000
   N     49.72000000    33.57000000    -0.27000000
   C     51.05000000    33.56000000    -0.84000000
   C     52.10000000    33.83000000     0.23000000
   O     52.91000000    32.94000000     0.45000000
   C     51.16000000    34.35000000    -2.14000000
   C     52.18000000    34.03000000    -3.22000000
   O     51.53000000    35.69000000    -1.92000000
   H     49.26000000    32.68000000    -0.21000000
   H     51.23000000    32.56000000    -1.23000000
   H     50.22000000    34.32000000    -2.70000000
   H     52.31000000    35.91000000    -2.44000000
   H     53.16000000    34.29000000    -2.83000000
   H     52.13000000    32.95000000    -3.38000000
   H     51.91000000    34.47000000    -4.18000000
   N     52.09000000    34.91000000     1.02000000
   C     52.89000000    35.19000000     2.20000000
   C     54.37000000    35.31000000     1.90000000
   O     54.82000000    34.83000000     0.86000000
   C     52.65000000    34.17000000     3.31000000
   C     52.46000000    34.80000000     4.69000000
   O     53.72000000    33.24000000     3.37000000
   H     51.50000000    35.67000000     0.72000000
   H     52.60000000    36.19000000     2.51000000
   H     51.75000000    33.57000000     3.18000000
   H     53.63000000    32.69000000     2.59000000
   H     52.33000000    33.99000000     5.41000000
   H     53.29000000    35.44000000     4.99000000
   H     51.54000000    35.38000000     4.77000000
   N     55.17000000    35.97000000     2.75000000
   C     56.62000000    36.04000000     2.73000000
   C     57.20000000    37.29000000     2.09000000
   O     58.27000000    37.23000000     1.49000000
   C     57.36000000    35.76000000     4.04000000
   C     56.77000000    34.71000000     4.97000000
   C     57.12000000    33.37000000     4.31000000
   C     56.61000000    32.26000000     5.23000000
   N     56.88000000    30.97000000     4.57000000
   H     54.83000000    36.53000000     3.51000000
   H     56.96000000    35.28000000     2.03000000
   H     57.32000000    36.62000000     4.71000000
   H     58.40000000    35.53000000     3.79000000
   H     55.70000000    34.90000000     5.02000000
   H     57.17000000    34.73000000     5.98000000
   H     58.17000000    33.23000000     4.09000000
   H     56.64000000    33.29000000     3.34000000
   H     55.53000000    32.27000000     5.37000000
   H     57.09000000    32.25000000     6.21000000
   H     56.65000000    30.17000000     5.14000000
   H     56.27000000    30.95000000     3.77000000
   H     57.86000000    30.93000000     4.34000000
   N     56.76000000    38.56000000     2.04000000
   C     55.52000000    39.19000000     2.44000000
   C     55.18000000    38.97000000     3.91000000
   O     54.26000000    38.30000000     4.36000000
   C     54.44000000    38.94000000     1.40000000
   C     53.11000000    39.68000000     1.48000000
   C     52.08000000    39.08000000     0.53000000
   O     51.80000000    37.86000000     0.56000000
   O     51.49000000    39.73000000    -0.36000000
   H     57.44000000    39.20000000     1.66000000
   H     55.74000000    40.26000000     2.39000000
   H     54.29000000    37.86000000     1.39000000
   H     54.91000000    39.17000000     0.44000000
   H     53.14000000    40.73000000     1.21000000
   H     52.67000000    39.61000000     2.48000000
   N     56.10000000    39.51000000     4.72000000
   C     56.03000000    39.79000000     6.14000000
   H     55.02500000    40.12500000     6.39400000
   H     56.26400000    38.88500000     6.70100000
   H     56.74800000    40.57100000     6.39300000
   H     56.86000000    39.97000000     4.25000000
  Ca     49.81000000    37.89000000    -1.28600000
   O     51.30000000    38.38000000    -3.44600000
   H     52.08000000    38.92000000    -3.57600000
   H     51.36000000    37.70000000    -4.11600000
   O     48.54000000    38.86000000     0.76000000
   H     48.36000000    39.80000000     0.80000000
   H     47.76000000    38.45000000     1.13000000
   O     48.85000000    39.98000000    -2.76600000
   H     48.90000000    39.91000000    -3.71600000
   H     48.92000000    40.92000000    -2.58600000

Ca 1.00



