%chk=loop4.cluster27.chk
%nprocshared=20
%mem=10GB
%nosave
#b3lyp/svp scf=(tight,noincore,xqc) Test 
#IOP(5/87=12) Density=Current Pop=(MK,readradii) iop(6/33=2) iop(6/42=6)

loop4.cluster27 

   -3  1 
   C     96.11000000    80.75000000    46.19000000
   C     97.30000000    79.89000000    46.61000000
   O     97.41000000    78.74000000    46.18000000
   H     95.28500000    80.59300000    46.88500000
   H     96.39900000    81.80100000    46.20100000
   H     95.79500000    80.47000000    45.18500000
   N     98.22000000    80.55000000    47.31000000
   C     99.39000000    80.05000000    48.02000000
   C    100.48000000    79.35000000    47.22000000
   O    101.55000000    78.94000000    47.66000000
   C     99.06000000    79.37000000    49.34000000
   C     98.25000000    78.08000000    49.29000000
   O     97.35000000    77.93000000    50.15000000
   O     98.42000000    77.26000000    48.36000000
   H     98.10000000    81.53000000    47.49000000
   H     99.87000000    80.94000000    48.43000000
   H     98.48000000    80.06000000    49.95000000
   H    100.05000000    79.27000000    49.78000000
   N    100.22000000    79.14000000    45.93000000
   C    101.07000000    78.32000000    45.08000000
   C    100.90000000    76.83000000    45.37000000
   O     99.84000000    76.34000000    45.74000000
   C    100.78000000    78.63000000    43.62000000
   C    101.31000000    79.98000000    43.14000000
   C     99.30000000    78.64000000    43.27000000
   C    101.39000000    80.02000000    41.61000000
   H     99.32000000    79.34000000    45.53000000
   H    102.10000000    78.57000000    45.31000000
   H    101.25000000    77.81000000    43.08000000
   H    102.31000000    80.16000000    43.55000000
   H    100.60000000    80.75000000    43.46000000
   H     99.14000000    78.85000000    42.22000000
   H     98.92000000    77.64000000    43.50000000
   H     98.75000000    79.46000000    43.72000000
   H    101.63000000    79.02000000    41.27000000
   H    100.42000000    80.37000000    41.27000000
   H    102.09000000    80.83000000    41.39000000
   N    101.99000000    76.06000000    45.26000000
   C    102.04000000    74.61000000    45.38000000
   C    101.68000000    74.20000000    46.79000000
   O    102.04000000    74.84000000    47.78000000
   C    103.37000000    74.06000000    44.86000000
   C    104.60000000    74.82000000    45.32000000
   O    104.72000000    75.91000000    44.73000000
   O    105.31000000    74.41000000    46.27000000
   H    102.86000000    76.48000000    44.97000000
   H    101.27000000    74.21000000    44.73000000
   H    103.41000000    74.09000000    43.77000000
   H    103.43000000    73.03000000    45.22000000
   N    101.00000000    73.08000000    47.08000000
   C    100.35000000    72.25000000    46.09000000
   C     99.00000000    72.74000000    45.58000000
   O     98.48000000    73.71000000    46.14000000
   H    100.95000000    72.84000000    48.06000000
   H    100.14000000    71.30000000    46.57000000
   H    100.99000000    72.05000000    45.23000000
   N     98.49000000    72.15000000    44.50000000
   C     99.01000000    71.16000000    43.58000000
   C     98.17000000    71.19000000    42.31000000
   O     96.98000000    70.88000000    42.38000000
   C     99.02000000    69.81000000    44.29000000
   C     99.71000000    68.67000000    43.55000000
   O     99.82000000    68.89000000    42.32000000
   O    100.10000000    67.64000000    44.13000000
   H     97.66000000    72.62000000    44.16000000
   H    100.05000000    71.38000000    43.35000000
   H     98.05000000    69.35000000    44.44000000
   H     99.50000000    69.98000000    45.25000000
   N     98.69000000    71.68000000    41.19000000
   C    100.08000000    72.10000000    41.09000000
   C    100.60000000    72.40000000    39.69000000
   O    101.64000000    71.88000000    39.31000000
   H     98.21000000    71.68000000    40.30000000
   H    100.72000000    71.25000000    41.34000000
   H    100.36000000    72.93000000    41.73000000
   N     99.90000000    73.18000000    38.87000000
   C    100.17000000    73.47000000    37.47000000
   C    100.00000000    74.93000000    37.07000000
   O     99.63000000    75.16000000    35.92000000
   C     99.37000000    72.50000000    36.61000000
   C     99.69000000    71.02000000    36.84000000
   C     99.04000000    70.05000000    35.87000000
   N     97.94000000    69.39000000    36.25000000
   O     99.57000000    69.96000000    34.77000000
   H     99.11000000    73.70000000    39.23000000
   H    101.24000000    73.35000000    37.37000000
   H     99.50000000    72.66000000    35.54000000
   H     98.32000000    72.65000000    36.87000000
   H     99.55000000    70.67000000    37.86000000
   H    100.75000000    70.88000000    36.64000000
   H     97.55000000    69.55000000    37.16000000
   H     97.58000000    68.87000000    35.46000000
   N    100.10000000    75.85000000    38.03000000
   C     99.74000000    77.25000000    37.96000000
   C     98.36000000    77.48000000    38.55000000
   O     98.08000000    77.25000000    39.72000000
   C    100.74000000    78.20000000    38.62000000
   C    100.29000000    79.64000000    38.35000000
   C    102.08000000    77.90000000    37.97000000
   H    100.47000000    75.48000000    38.89000000
   H     99.84000000    77.44000000    36.89000000
   H    100.71000000    77.91000000    39.67000000
   H    101.01000000    80.38000000    38.68000000
   H    100.09000000    79.73000000    37.29000000
   H     99.37000000    79.82000000    38.91000000
   H    102.85000000    78.42000000    38.55000000
   H    102.31000000    76.84000000    37.95000000
   H    102.12000000    78.34000000    36.97000000
   N     97.58000000    78.24000000    37.78000000
   C     96.20000000    78.53000000    38.11000000
   C     95.37000000    77.30000000    37.79000000
   O     94.32000000    77.17000000    38.42000000
   C     95.87000000    79.72000000    37.21000000
   C     94.49000000    80.31000000    37.48000000
   N     93.54000000    80.31000000    36.55000000
   O     94.32000000    80.96000000    38.51000000
   H     97.84000000    78.46000000    36.83000000
   H     96.10000000    78.85000000    39.15000000
   H     95.84000000    79.50000000    36.14000000
   H     96.55000000    80.54000000    37.43000000
   H     93.63000000    79.78000000    35.70000000
   H     92.76000000    80.95000000    36.60000000
   N     95.87000000    76.35000000    37.00000000
   C     95.32000000    75.02000000    36.78000000
   C     95.41000000    74.39000000    38.16000000
   O     96.43000000    74.36000000    38.85000000
   C     96.03000000    74.20000000    35.70000000
   C     95.39000000    74.23000000    34.34000000
   C     96.07000000    74.95000000    33.35000000
   C     94.13000000    73.69000000    34.01000000
   C     95.50000000    75.17000000    32.09000000
   C     93.57000000    73.87000000    32.74000000
   C     94.22000000    74.67000000    31.78000000
   O     93.69000000    74.73000000    30.52000000
   H     96.82000000    76.52000000    36.73000000
   H     94.28000000    75.22000000    36.52000000
   H     96.15000000    73.16000000    36.01000000
   H     97.09000000    74.44000000    35.70000000
   H     97.08000000    75.24000000    33.59000000
   H     93.57000000    73.17000000    34.77000000
   H     96.05000000    75.73000000    31.35000000
   H     92.65000000    73.40000000    32.44000000
   H     94.21000000    75.09000000    29.80000000
   N     94.27000000    73.86000000    38.59000000
   C     94.00000000    73.29000000    39.90000000
   C     93.94000000    74.21000000    41.11000000
   O     93.80000000    73.74000000    42.24000000
   C     94.91000000    72.08000000    40.10000000
   C     94.93000000    71.03000000    38.99000000
   C     95.75000000    69.76000000    39.15000000
   O     95.23000000    68.67000000    39.46000000
   O     96.99000000    69.78000000    39.03000000
   H     93.43000000    74.07000000    38.07000000
   H     92.99000000    72.87000000    39.89000000
   H     94.47000000    71.53000000    40.93000000
   H     95.90000000    72.39000000    40.41000000
   H     95.18000000    71.50000000    38.03000000
   H     93.88000000    70.74000000    38.99000000
   N     93.82000000    75.52000000    40.90000000
   C     93.47000000    76.57000000    41.84000000
   C     92.18000000    77.30000000    41.52000000
   O     91.54000000    77.83000000    42.42000000
   C     94.58000000    77.61000000    41.92000000
   C     95.97000000    77.11000000    42.31000000
   C     96.27000000    76.65000000    43.73000000
   O     97.22000000    75.86000000    43.93000000
   O     95.50000000    76.72000000    44.71000000
   H     94.01000000    75.84000000    39.96000000
   H     93.38000000    76.12000000    42.83000000
   H     94.21000000    78.46000000    42.49000000
   H     94.69000000    78.06000000    40.93000000
   H     96.65000000    77.94000000    42.17000000
   H     96.41000000    76.39000000    41.63000000
   N     91.74000000    77.33000000    40.26000000
   C     90.42000000    77.85000000    39.94000000
   H     89.73400000    77.62800000    40.75800000
   H     90.47800000    78.92900000    39.79900000
   H     90.05700000    77.38300000    39.02500000
   H     92.21000000    76.80000000    39.54000000
  Ca     97.32000000    76.04000000    46.51000000
   O     97.17000000    74.34000000    48.66000000
   H     96.82000000    73.45000000    48.74000000
   H     97.03000000    74.73000000    49.52000000
   O     95.43000000    77.07000000    48.16000000
   H     95.95000000    77.63000000    48.74000000
   H     94.57000000    77.49000000    48.14000000
   O     95.18000000    74.27000000    45.89000000
   H     94.85000000    74.99000000    45.35000000
   H     94.93000000    73.48000000    45.40000000

Ca 1.00



