%chk=loop2.cluster194.chk
%nprocshared=20
%mem=10GB
%nosave
#b3lyp/svp scf=(tight,noincore,xqc) Test 
#IOP(5/87=12) Density=Current Pop=(MK,readradii) iop(6/33=2) iop(6/42=6)

loop2.cluster194 

   -2  1 
   C     96.17000000    69.70000000    45.01000000
   C     97.50000000    70.33000000    44.62000000
   O     97.43000000    71.32000000    43.89000000
   H     95.40600000    69.98900000    44.28800000
   H     96.27000000    68.61500000    45.01800000
   H     95.88100000    70.04600000    46.00200000
   N     98.68000000    69.81000000    44.96000000
   C     99.99000000    70.20000000    44.47000000
   C    100.49000000    71.47000000    45.14000000
   O    100.34000000    71.62000000    46.35000000
   C    100.94000000    69.01000000    44.50000000
   C    102.36000000    69.25000000    43.99000000
   O    102.53000000    69.33000000    42.76000000
   O    103.33000000    69.48000000    44.74000000
   H     98.70000000    68.99000000    45.55000000
   H     99.89000000    70.50000000    43.43000000
   H    100.55000000    68.20000000    43.88000000
   H    100.98000000    68.75000000    45.56000000
   N    100.96000000    72.42000000    44.32000000
   C    101.34000000    73.77000000    44.68000000
   C    100.21000000    74.52000000    45.36000000
   O     99.08000000    74.49000000    44.87000000
   C    101.77000000    74.44000000    43.38000000
   H    101.02000000    72.20000000    43.34000000
   H    102.17000000    73.69000000    45.38000000
   H    102.65000000    73.91000000    43.01000000
   H    101.06000000    74.59000000    42.56000000
   H    102.17000000    75.42000000    43.59000000
   N    100.44000000    75.30000000    46.43000000
   C    101.74000000    75.72000000    46.91000000
   C    102.19000000    75.05000000    48.20000000
   O    101.40000000    74.52000000    48.97000000
   C    101.65000000    77.22000000    47.15000000
   C    101.22000000    78.01000000    45.91000000
   O    101.91000000    78.04000000    44.88000000
   O    100.31000000    78.84000000    46.12000000
   H     99.60000000    75.63000000    46.88000000
   H    102.51000000    75.58000000    46.15000000
   H    102.59000000    77.65000000    47.49000000
   H    100.93000000    77.32000000    47.96000000
   N    103.52000000    74.97000000    48.34000000
   C    104.20000000    74.16000000    49.33000000
   C    104.13000000    72.64000000    49.22000000
   O    104.16000000    72.19000000    48.08000000
   H    104.01000000    75.50000000    47.63000000
   H    103.69000000    74.40000000    50.27000000
   H    105.24000000    74.49000000    49.37000000
   N    104.07000000    71.90000000    50.33000000
   C    104.20000000    72.31000000    51.72000000
   C    102.85000000    72.36000000    52.42000000
   O    102.80000000    72.52000000    53.64000000
   C    105.25000000    71.44000000    52.40000000
   C    106.66000000    71.55000000    51.85000000
   N    107.06000000    70.55000000    51.06000000
   O    107.36000000    72.51000000    52.15000000
   H    104.01000000    70.91000000    50.17000000
   H    104.65000000    73.29000000    51.84000000
   H    104.96000000    70.39000000    52.37000000
   H    105.38000000    71.83000000    53.41000000
   H    106.42000000    69.84000000    50.76000000
   H    107.97000000    70.65000000    50.62000000
   N    101.71000000    72.20000000    51.73000000
   C    100.42000000    72.24000000    52.37000000
   C    100.01000000    73.64000000    52.79000000
   O     99.50000000    73.78000000    53.90000000
   H    101.70000000    72.13000000    50.72000000
   H    100.46000000    71.53000000    53.20000000
   H     99.66000000    71.90000000    51.67000000
   N    100.24000000    74.53000000    51.82000000
   C    100.09000000    75.96000000    52.01000000
   C     98.86000000    76.39000000    51.22000000
   O     98.95000000    77.36000000    50.46000000
   C    101.37000000    76.72000000    51.69000000
   C    101.34000000    78.08000000    52.39000000
   O    102.46000000    76.02000000    52.25000000
   H    100.62000000    74.11000000    50.99000000
   H     99.92000000    76.20000000    53.06000000
   H    101.48000000    76.94000000    50.63000000
   H    103.23000000    76.59000000    52.35000000
   H    100.37000000    78.58000000    52.38000000
   H    101.59000000    78.05000000    53.45000000
   H    102.12000000    78.66000000    51.89000000
   N     97.72000000    75.72000000    51.36000000
   C     96.52000000    76.08000000    50.62000000
   C     95.94000000    77.34000000    51.26000000
   O     95.99000000    77.50000000    52.47000000
   C     95.60000000    74.86000000    50.66000000
   C     96.06000000    73.65000000    49.84000000
   C     95.32000000    74.43000000    52.09000000
   C     96.92000000    73.90000000    48.61000000
   H     97.53000000    75.08000000    52.12000000
   H     96.77000000    76.29000000    49.59000000
   H     94.62000000    75.16000000    50.30000000
   H     95.16000000    73.10000000    49.57000000
   H     96.67000000    73.05000000    50.51000000
   H     96.14000000    73.86000000    52.53000000
   H     95.00000000    75.30000000    52.66000000
   H     94.45000000    73.77000000    52.02000000
   H     96.26000000    74.36000000    47.87000000
   H     97.83000000    74.46000000    48.84000000
   H     97.20000000    72.88000000    48.35000000
   N     95.22000000    78.13000000    50.46000000
   C     94.51000000    79.31000000    50.92000000
   C     93.14000000    79.43000000    50.27000000
   O     92.94000000    79.22000000    49.07000000
   C     95.37000000    80.55000000    50.68000000
   C     95.70000000    80.83000000    49.22000000
   O     96.71000000    80.28000000    48.73000000
   O     95.03000000    81.61000000    48.51000000
   H     95.34000000    77.98000000    49.47000000
   H     94.33000000    79.24000000    51.99000000
   H     96.35000000    80.42000000    51.14000000
   H     94.93000000    81.39000000    51.20000000
   N     92.12000000    79.83000000    51.03000000
   C     90.72000000    79.94000000    50.69000000
   C     90.17000000    78.73000000    49.94000000
   O     90.40000000    77.63000000    50.46000000
   C     89.93000000    80.25000000    51.97000000
   C     88.47000000    80.48000000    51.68000000
   C     87.48000000    79.56000000    52.06000000
   C     88.11000000    81.60000000    50.92000000
   C     86.21000000    79.77000000    51.53000000
   C     86.80000000    81.82000000    50.48000000
   C     85.85000000    80.81000000    50.67000000
   H     92.36000000    80.14000000    51.96000000
   H     90.82000000    80.75000000    49.98000000
   H     90.41000000    81.12000000    52.42000000
   H     90.08000000    79.40000000    52.64000000
   H     87.74000000    78.71000000    52.68000000
   H     88.94000000    82.25000000    50.70000000
   H     85.44000000    79.07000000    51.84000000
   H     86.50000000    82.70000000    49.93000000
   H     84.84000000    80.96000000    50.29000000
   N     89.66000000    78.93000000    48.73000000
   C     89.05000000    77.91000000    47.90000000
   C     89.94000000    76.67000000    47.84000000
   O     89.43000000    75.57000000    47.69000000
   C     88.92000000    78.54000000    46.52000000
   C     88.53000000    79.97000000    46.88000000
   C     89.41000000    80.21000000    48.10000000
   H     88.06000000    77.58000000    48.20000000
   H     89.88000000    78.53000000    45.99000000
   H     88.08000000    78.01000000    46.07000000
   H     88.72000000    80.64000000    46.05000000
   H     87.48000000    79.95000000    47.19000000
   H     90.35000000    80.65000000    47.77000000
   H     89.07000000    80.92000000    48.86000000
   N     91.27000000    76.78000000    47.96000000
   C     92.18000000    75.67000000    47.76000000
   C     91.97000000    74.58000000    48.80000000
   O     92.05000000    73.42000000    48.43000000
   C     93.62000000    76.19000000    47.80000000
   C     93.80000000    77.19000000    46.66000000
   C     95.12000000    77.95000000    46.68000000
   O     95.41000000    78.77000000    45.78000000
   O     95.94000000    77.84000000    47.61000000
   H     91.63000000    77.67000000    48.26000000
   H     92.09000000    75.22000000    46.77000000
   H     94.30000000    75.36000000    47.62000000
   H     93.90000000    76.70000000    48.72000000
   H     93.03000000    77.93000000    46.47000000
   H     93.74000000    76.67000000    45.70000000
   N     91.55000000    74.88000000    50.04000000
   C     91.12000000    73.92000000    51.03000000
   H     90.10900000    73.58700000    50.79700000
   H     91.79500000    73.06400000    51.02400000
   H     91.13000000    74.38500000    52.01600000
   H     91.44000000    75.87000000    50.17000000
  Ca     97.84000000    79.53000000    46.46000000
   O     98.63000000    80.28000000    43.86000000
   H     98.01000000    80.62000000    43.22000000
   H     99.41000000    80.83000000    43.76000000
   O     98.21000000    77.06000000    45.03000000
   H     98.51000000    76.15000000    45.11000000
   H     98.72000000    77.40000000    44.29000000
   O     98.42000000    77.01000000    47.88000000
   H     97.47000000    77.03000000    47.87000000
   H     98.66000000    77.19000000    48.79000000
   O     99.37000000    79.64000000    48.77000000
   H     99.50000000    78.92000000    49.38000000
   H     98.51000000    79.99000000    49.00000000
   O     96.00000000    81.59000000    45.93000000
   H     96.42000000    82.44000000    46.04000000
   H     95.60000000    81.41000000    46.79000000

Ca 1.00



