%chk=loop1.cluster86.chk
%nprocshared=20
%mem=10GB
%nosave
#b3lyp/svp scf=(tight,noincore,xqc) Test 
#IOP(5/87=12) Density=Current Pop=(MK,readradii) iop(6/33=2) iop(6/42=6)

loop1.cluster86 

   0  1 
   C     41.43000000     0.61000000    36.87000000
   C     41.25000000    -0.89000000    37.10000000
   O     42.06000000    -1.60000000    36.52000000
   H     42.39000000     0.79000000    36.38600000
   H     40.62700000     0.97900000    36.23200000
   H     41.40300000     1.13100000    37.82700000
   N     40.27000000    -1.33000000    37.90000000
   C     39.94000000    -2.72000000    38.17000000
   C     38.44000000    -2.94000000    38.11000000
   O     37.88000000    -3.76000000    38.83000000
   C     40.60000000    -3.32000000    39.41000000
   C     40.30000000    -2.65000000    40.74000000
   O     40.74000000    -3.22000000    41.76000000
   O     39.61000000    -1.61000000    40.72000000
   H     39.81000000    -0.66000000    38.50000000
   H     40.40000000    -3.22000000    37.31000000
   H     41.67000000    -3.13000000    39.30000000
   H     40.32000000    -4.37000000    39.52000000
   N     37.79000000    -2.23000000    37.18000000
   C     36.41000000    -2.45000000    36.80000000
   C     36.17000000    -2.69000000    35.32000000
   O     36.42000000    -1.83000000    34.48000000
   C     35.58000000    -1.22000000    37.17000000
   C     35.35000000    -0.99000000    38.67000000
   C     34.44000000     0.20000000    38.96000000
   C     34.24000000     0.29000000    40.47000000
   N     35.43000000     0.75000000    41.19000000
   H     38.25000000    -1.50000000    36.66000000
   H     36.02000000    -3.21000000    37.48000000
   H     34.63000000    -1.31000000    36.66000000
   H     36.15000000    -0.40000000    36.73000000
   H     36.32000000    -0.92000000    39.16000000
   H     34.77000000    -1.85000000    39.01000000
   H     33.42000000     0.05000000    38.60000000
   H     34.68000000     1.15000000    38.49000000
   H     33.90000000    -0.62000000    40.97000000
   H     33.54000000     1.11000000    40.63000000
   H     35.92000000     1.49000000    40.70000000
   H     35.19000000     1.23000000    42.05000000
   H     36.09000000     0.00000000    41.36000000
   N     35.77000000    -3.90000000    34.92000000
   C     35.40000000    -5.11000000    35.63000000
   C     34.21000000    -5.01000000    36.58000000
   O     33.71000000    -3.92000000    36.83000000
   C     36.65000000    -5.73000000    36.24000000
   C     37.94000000    -5.52000000    35.45000000
   O     37.92000000    -5.66000000    34.20000000
   O     39.02000000    -5.24000000    36.00000000
   H     35.68000000    -3.81000000    33.92000000
   H     35.12000000    -5.78000000    34.82000000
   H     36.56000000    -6.81000000    36.33000000
   H     36.78000000    -5.35000000    37.25000000
   N     33.57000000    -6.07000000    37.09000000
   C     33.84000000    -7.49000000    36.95000000
   C     34.16000000    -8.20000000    38.26000000
   O     33.39000000    -8.14000000    39.21000000
   H     32.85000000    -5.77000000    37.73000000
   H     34.49000000    -7.67000000    36.10000000
   H     32.85000000    -7.88000000    36.70000000
   N     35.21000000    -9.00000000    38.51000000
   C     36.19000000    -9.42000000    37.53000000
   C     37.50000000    -8.66000000    37.67000000
   O     38.23000000    -8.57000000    36.68000000
   C     36.38000000   -10.92000000    37.66000000
   C     37.05000000   -11.39000000    38.95000000
   O     36.67000000   -10.97000000    40.06000000
   O     38.03000000   -12.16000000    38.83000000
   H     35.20000000    -9.33000000    39.46000000
   H     35.89000000    -9.19000000    36.51000000
   H     36.98000000   -11.21000000    36.79000000
   H     35.51000000   -11.52000000    37.39000000
   N     37.78000000    -8.13000000    38.87000000
   C     38.85000000    -7.23000000    39.25000000
   C     40.19000000    -7.71000000    38.73000000
   O     40.73000000    -8.69000000    39.26000000
   H     37.10000000    -8.32000000    39.60000000
   H     38.82000000    -7.10000000    40.33000000
   H     38.62000000    -6.24000000    38.85000000
   N     40.67000000    -7.09000000    37.65000000
   C     41.92000000    -7.50000000    37.06000000
   C     42.58000000    -6.30000000    36.38000000
   O     41.97000000    -5.49000000    35.69000000
   C     41.70000000    -8.68000000    36.12000000
   C     42.84000000    -8.91000000    35.14000000
   O     40.51000000    -8.80000000    35.36000000
   H     40.21000000    -6.31000000    37.18000000
   H     42.65000000    -7.79000000    37.81000000
   H     41.64000000    -9.59000000    36.71000000
   H     39.83000000    -8.85000000    36.04000000
   H     42.84000000    -8.21000000    34.30000000
   H     43.76000000    -8.66000000    35.67000000
   H     42.81000000    -9.94000000    34.80000000
   N     43.89000000    -6.19000000    36.63000000
   C     44.69000000    -5.04000000    36.25000000
   C     46.13000000    -5.43000000    35.95000000
   O     47.09000000    -5.40000000    36.72000000
   C     44.54000000    -3.94000000    37.30000000
   C     45.36000000    -2.67000000    37.06000000
   C     44.75000000    -4.36000000    38.75000000
   C     45.27000000    -2.00000000    35.69000000
   H     44.37000000    -7.00000000    36.99000000
   H     44.25000000    -4.65000000    35.34000000
   H     43.50000000    -3.61000000    37.32000000
   H     46.38000000    -2.99000000    37.29000000
   H     45.08000000    -1.98000000    37.85000000
   H     44.10000000    -5.18000000    39.04000000
   H     45.81000000    -4.59000000    38.86000000
   H     44.47000000    -3.58000000    39.46000000
   H     45.43000000    -2.72000000    34.89000000
   H     44.36000000    -1.41000000    35.64000000
   H     46.16000000    -1.37000000    35.59000000
   N     46.28000000    -5.81000000    34.68000000
   C     47.52000000    -6.38000000    34.18000000
   C     47.78000000    -5.99000000    32.73000000
   O     48.79000000    -6.45000000    32.19000000
   C     47.59000000    -7.87000000    34.47000000
   C     46.65000000    -8.81000000    33.72000000
   O     47.49000000    -8.20000000    35.84000000
   H     45.48000000    -5.78000000    34.07000000
   H     48.28000000    -5.86000000    34.76000000
   H     48.56000000    -8.24000000    34.13000000
   H     48.36000000    -7.95000000    36.18000000
   H     46.66000000    -8.55000000    32.66000000
   H     47.01000000    -9.81000000    33.97000000
   H     45.63000000    -8.68000000    34.08000000
   N     46.90000000    -5.29000000    32.01000000
   C     46.87000000    -5.10000000    30.58000000
   C     46.57000000    -6.33000000    29.73000000
   O     46.94000000    -7.48000000    30.00000000
   C     48.19000000    -4.52000000    30.09000000
   C     48.92000000    -3.49000000    30.96000000
   O     47.90000000    -3.77000000    28.94000000
   H     46.06000000    -5.03000000    32.51000000
   H     46.16000000    -4.31000000    30.35000000
   H     48.79000000    -5.41000000    29.91000000
   H     48.75000000    -3.39000000    28.69000000
   H     48.87000000    -3.76000000    32.01000000
   H     49.99000000    -3.45000000    30.76000000
   H     48.56000000    -2.47000000    30.83000000
   N     45.84000000    -6.15000000    28.63000000
   C     45.69000000    -7.13000000    27.58000000
   C     44.30000000    -7.49000000    27.05000000
   O     44.21000000    -8.61000000    26.56000000
   C     46.64000000    -6.73000000    26.45000000
   C     48.10000000    -7.00000000    26.80000000
   C     48.92000000    -6.63000000    25.56000000
   C     50.28000000    -7.21000000    25.95000000
   N     51.32000000    -6.97000000    24.94000000
   H     45.64000000    -5.18000000    28.44000000
   H     46.02000000    -8.12000000    27.89000000
   H     46.49000000    -5.71000000    26.11000000
   H     46.34000000    -7.29000000    25.56000000
   H     48.29000000    -8.04000000    27.07000000
   H     48.46000000    -6.43000000    27.66000000
   H     49.06000000    -5.55000000    25.46000000
   H     48.60000000    -7.13000000    24.65000000
   H     50.12000000    -8.28000000    26.10000000
   H     50.55000000    -6.72000000    26.88000000
   H     51.12000000    -7.44000000    24.07000000
   H     51.48000000    -6.00000000    24.72000000
   H     52.20000000    -7.35000000    25.29000000
   N     43.23000000    -6.71000000    27.14000000
   C     43.05000000    -5.39000000    27.71000000
   C     44.00000000    -4.33000000    27.18000000
   O     44.55000000    -3.52000000    27.94000000
   C     42.82000000    -5.33000000    29.22000000
   C     41.59000000    -4.52000000    29.60000000
   C     41.14000000    -4.61000000    31.06000000
   O     39.93000000    -4.38000000    31.25000000
   O     41.91000000    -4.88000000    32.01000000
   H     42.42000000    -7.12000000    26.68000000
   H     42.15000000    -5.10000000    27.17000000
   H     43.67000000    -4.99000000    29.81000000
   H     42.69000000    -6.34000000    29.60000000
   H     40.83000000    -4.78000000    28.87000000
   H     41.81000000    -3.49000000    29.33000000
   N     44.13000000    -4.19000000    25.86000000
   C     44.66000000    -3.00000000    25.22000000
   H     45.65400000    -3.21200000    24.82600000
   H     44.00200000    -2.70300000    24.40300000
   H     44.72300000    -2.19200000    25.94900000
   H     43.61000000    -4.84000000    25.29000000
  Ca     40.29000000    -4.52100000    33.88000000
   O     42.19000000    -2.85100000    34.33000000
   H     42.28000000    -2.55100000    35.23000000
   H     43.07000000    -2.78100000    33.97000000
   O     39.03000000    -2.27100000    33.94000000
   H     39.22000000    -1.49100000    33.43000000
   H     38.11000000    -2.18100000    34.18000000
   O     40.27000000    -6.92100000    33.10000000
   H     40.15000000    -7.70100000    33.65000000
   H     40.52000000    -7.27100000    32.25000000

Ca 1.00



