%chk=loop1.cluster30.chk
%nprocshared=20
%mem=10GB
%nosave
#b3lyp/svp scf=(tight,noincore,xqc) Test 
#IOP(5/87=12) Density=Current Pop=(MK,readradii) iop(6/33=2) iop(6/42=6)

loop1.cluster30 

   0  1 
   C     38.87000000    32.07000000    30.83000000
   C     37.88000000    31.44000000    29.85000000
   O     37.50000000    32.00000000    28.82000000
   H     39.74600000    32.42100000    30.28500000
   H     38.39600000    32.91200000    31.33500000
   H     39.17500000    31.32700000    31.56700000
   N     37.32000000    30.30000000    30.26000000
   C     36.38000000    29.58000000    29.43000000
   C     34.91000000    29.87000000    29.70000000
   O     34.14000000    28.93000000    29.54000000
   C     36.79000000    28.11000000    29.40000000
   C     36.87000000    27.47000000    30.78000000
   O     36.35000000    27.91000000    31.82000000
   O     37.63000000    26.48000000    30.82000000
   H     37.51000000    29.93000000    31.18000000
   H     36.59000000    29.88000000    28.40000000
   H     37.82000000    28.06000000    29.05000000
   H     36.15000000    27.52000000    28.74000000
   N     34.52000000    31.03000000    30.25000000
   C     33.16000000    31.49000000    30.43000000
   C     32.77000000    32.72000000    29.62000000
   O     33.40000000    33.75000000    29.82000000
   C     33.01000000    31.75000000    31.93000000
   C     32.84000000    30.53000000    32.84000000
   C     34.18000000    30.10000000    33.42000000
   C     34.15000000    28.73000000    34.10000000
   N     34.17000000    27.63000000    33.13000000
   H     35.16000000    31.80000000    30.34000000
   H     32.40000000    30.72000000    30.33000000
   H     32.04000000    32.22000000    32.06000000
   H     33.76000000    32.41000000    32.36000000
   H     32.35000000    29.70000000    32.34000000
   H     32.18000000    30.87000000    33.64000000
   H     34.51000000    30.81000000    34.18000000
   H     34.92000000    30.00000000    32.63000000
   H     33.30000000    28.67000000    34.78000000
   H     35.07000000    28.67000000    34.70000000
   H     34.08000000    26.75000000    33.63000000
   H     33.50000000    27.71000000    32.38000000
   H     35.09000000    27.62000000    32.72000000
   N     31.84000000    32.63000000    28.67000000
   C     31.03000000    31.53000000    28.19000000
   C     30.07000000    30.93000000    29.21000000
   O     29.98000000    31.36000000    30.36000000
   C     31.96000000    30.50000000    27.57000000
   C     32.94000000    31.14000000    26.60000000
   O     34.16000000    30.89000000    26.66000000
   O     32.48000000    31.91000000    25.73000000
   H     31.69000000    33.51000000    28.19000000
   H     30.48000000    31.81000000    27.29000000
   H     31.39000000    29.73000000    27.05000000
   H     32.45000000    30.00000000    28.41000000
   N     29.16000000    30.00000000    28.91000000
   C     28.75000000    29.50000000    27.61000000
   C     28.07000000    28.16000000    27.80000000
   O     27.08000000    28.04000000    28.52000000
   H     28.63000000    29.60000000    29.67000000
   H     29.55000000    29.26000000    26.91000000
   H     27.96000000    30.13000000    27.21000000
   N     28.45000000    27.02000000    27.22000000
   C     29.71000000    26.67000000    26.60000000
   C     30.95000000    26.80000000    27.47000000
   O     30.74000000    26.87000000    28.68000000
   C     29.66000000    25.23000000    26.11000000
   C     28.29000000    24.85000000    25.56000000
   O     28.01000000    25.19000000    24.39000000
   O     27.34000000    24.34000000    26.19000000
   H     27.93000000    26.23000000    27.57000000
   H     29.89000000    27.34000000    25.76000000
   H     29.92000000    24.57000000    26.94000000
   H     30.41000000    25.15000000    25.32000000
   N     32.12000000    26.87000000    26.82000000
   C     33.43000000    27.22000000    27.33000000
   C     34.66000000    26.83000000    26.51000000
   O     34.99000000    25.66000000    26.35000000
   H     32.02000000    26.90000000    25.82000000
   H     33.64000000    26.87000000    28.34000000
   H     33.53000000    28.30000000    27.44000000
   N     35.34000000    27.88000000    26.06000000
   C     36.55000000    27.69000000    25.28000000
   C     37.36000000    28.98000000    25.25000000
   O     36.82000000    30.08000000    25.29000000
   C     36.36000000    27.23000000    23.84000000
   C     37.51000000    26.46000000    23.17000000
   O     36.00000000    28.33000000    23.04000000
   H     35.05000000    28.83000000    26.26000000
   H     37.11000000    26.96000000    25.86000000
   H     35.54000000    26.52000000    23.85000000
   H     35.25000000    28.72000000    23.49000000
   H     38.49000000    26.85000000    23.42000000
   H     37.60000000    25.41000000    23.41000000
   H     37.46000000    26.61000000    22.09000000
   N     38.69000000    28.93000000    25.36000000
   C     39.62000000    30.04000000    25.45000000
   C     40.89000000    29.92000000    24.62000000
   O     41.79000000    29.12000000    24.85000000
   C     39.78000000    30.57000000    26.87000000
   C     40.64000000    31.80000000    27.15000000
   C     40.38000000    29.41000000    27.66000000
   C     40.13000000    32.94000000    26.27000000
   H     39.04000000    28.01000000    25.59000000
   H     39.15000000    30.84000000    24.87000000
   H     38.75000000    30.71000000    27.19000000
   H     41.68000000    31.57000000    26.93000000
   H     40.63000000    32.10000000    28.20000000
   H     41.45000000    29.25000000    27.52000000
   H     40.25000000    29.58000000    28.73000000
   H     39.85000000    28.48000000    27.47000000
   H     39.09000000    33.18000000    26.51000000
   H     40.78000000    33.81000000    26.38000000
   H     40.20000000    32.60000000    25.23000000
   N     40.95000000    30.70000000    23.54000000
   C     42.16000000    30.93000000    22.77000000
   C     42.53000000    32.38000000    22.54000000
   O     43.57000000    32.64000000    21.94000000
   C     42.20000000    30.21000000    21.42000000
   C     41.11000000    30.70000000    20.48000000
   O     42.12000000    28.80000000    21.45000000
   H     40.11000000    31.15000000    23.21000000
   H     43.01000000    30.64000000    23.38000000
   H     43.16000000    30.44000000    20.96000000
   H     42.10000000    28.50000000    20.54000000
   H     40.13000000    30.28000000    20.69000000
   H     41.16000000    31.79000000    20.52000000
   H     41.39000000    30.47000000    19.45000000
   N     41.66000000    33.32000000    22.92000000
   C     41.81000000    34.75000000    22.71000000
   C     41.51000000    35.08000000    21.26000000
   O     41.67000000    34.28000000    20.34000000
   C     43.10000000    35.31000000    23.30000000
   C     43.40000000    34.72000000    24.68000000
   O     42.90000000    36.70000000    23.41000000
   H     40.77000000    33.02000000    23.29000000
   H     41.02000000    35.23000000    23.29000000
   H     44.00000000    35.13000000    22.71000000
   H     43.67000000    37.12000000    23.81000000
   H     43.86000000    33.75000000    24.55000000
   H     44.16000000    35.35000000    25.15000000
   H     42.53000000    34.71000000    25.33000000
   N     41.03000000    36.31000000    21.07000000
   C     40.83000000    36.93000000    19.78000000
   C     39.40000000    36.96000000    19.27000000
   O     39.02000000    36.64000000    18.14000000
   C     41.56000000    38.27000000    19.68000000
   C     43.08000000    38.15000000    19.59000000
   C     43.77000000    39.51000000    19.63000000
   C     43.69000000    40.23000000    18.28000000
   N     44.68000000    41.32000000    18.26000000
   H     40.96000000    36.86000000    21.92000000
   H     41.39000000    36.27000000    19.12000000
   H     41.36000000    38.87000000    20.57000000
   H     41.31000000    38.79000000    18.75000000
   H     43.47000000    37.70000000    18.68000000
   H     43.43000000    37.49000000    20.38000000
   H     44.82000000    39.36000000    19.87000000
   H     43.33000000    40.07000000    20.45000000
   H     42.69000000    40.59000000    18.08000000
   H     43.97000000    39.48000000    17.54000000
   H     44.64000000    41.97000000    17.48000000
   H     44.62000000    41.92000000    19.07000000
   H     45.60000000    40.93000000    18.37000000
   N     38.34000000    37.27000000    20.02000000
   C     38.13000000    37.47000000    21.44000000
   C     39.02000000    38.56000000    22.00000000
   O     39.82000000    38.30000000    22.90000000
   C     37.97000000    36.17000000    22.23000000
   C     36.83000000    35.37000000    21.62000000
   C     36.03000000    34.54000000    22.61000000
   O     34.79000000    34.37000000    22.52000000
   O     36.58000000    33.82000000    23.46000000
   H     37.54000000    37.27000000    19.41000000
   H     37.17000000    37.98000000    21.37000000
   H     37.85000000    36.45000000    23.28000000
   H     38.89000000    35.58000000    22.16000000
   H     37.09000000    34.67000000    20.83000000
   H     36.21000000    36.12000000    21.12000000
   N     38.86000000    39.80000000    21.53000000
   C     39.37000000    41.06000000    22.04000000
   H     40.30100000    41.30800000    21.53000000
   H     38.63800000    41.84800000    21.86200000
   H     39.55500000    40.97100000    23.11000000
   H     38.17000000    40.02000000    20.82000000
  Ca     34.86000000    32.39000000    24.58000000
   O     33.78000000    29.74000000    23.81000000
   H     33.39000000    29.65000000    22.94000000
   H     33.10000000    29.43000000    24.41000000
   O     32.84000000    32.25000000    22.67000000
   H     32.12000000    31.64000000    22.51000000
   H     32.50000000    33.11000000    22.40000000
   O     34.05000000    34.80000000    25.67000000
   H     33.30000000    34.67000000    26.25000000
   H     34.18000000    35.74000000    25.64000000
   O     36.43000000    32.99000000    26.65000000
   H     36.54000000    33.64000000    27.34000000
   H     36.66000000    32.16000000    27.07000000
   O     36.19000000    31.04000000    22.51000000
   H     36.16000000    30.08000000    22.42000000
   H     36.52000000    31.35000000    21.67000000

Ca 1.00



