%chk=loop4.cluster143.chk
%nprocshared=20
%mem=10GB
%nosave
#b3lyp/svp scf=(tight,noincore,xqc) Test 
#IOP(5/87=12) Density=Current Pop=(MK,readradii) iop(6/33=2) iop(6/42=6)

loop4.cluster143 

   -3  1 
   C     42.77000000    42.66000000    40.54000000
   C     43.99000000    42.37000000    41.40000000
   O     45.07000000    42.91000000    41.20000000
   H     41.98100000    43.08500000    41.16100000
   H     43.03700000    43.37000000    39.75700000
   H     42.41600000    41.73400000    40.08700000
   N     43.85000000    41.72000000    42.56000000
   C     42.78000000    40.87000000    43.05000000
   C     41.56000000    41.58000000    43.64000000
   O     40.44000000    41.08000000    43.66000000
   C     43.43000000    39.99000000    44.11000000
   C     44.74000000    39.32000000    43.69000000
   O     44.68000000    38.12000000    43.35000000
   O     45.85000000    39.88000000    43.78000000
   H     44.68000000    41.43000000    43.05000000
   H     42.40000000    40.26000000    42.23000000
   H     42.67000000    39.29000000    44.44000000
   H     43.69000000    40.65000000    44.94000000
   N     41.79000000    42.80000000    44.11000000
   C     40.75000000    43.62000000    44.70000000
   C     40.25000000    43.08000000    46.04000000
   O     39.08000000    43.33000000    46.31000000
   C     41.16000000    45.08000000    44.69000000
   C     40.03000000    46.05000000    45.05000000
   C     42.31000000    45.18000000    45.70000000
   C     40.29000000    47.53000000    44.80000000
   H     42.66000000    43.30000000    43.97000000
   H     39.95000000    43.60000000    43.95000000
   H     41.40000000    45.36000000    43.66000000
   H     39.86000000    46.00000000    46.13000000
   H     39.08000000    45.81000000    44.60000000
   H     42.77000000    46.17000000    45.62000000
   H     41.99000000    44.96000000    46.71000000
   H     43.08000000    44.50000000    45.34000000
   H     40.37000000    47.64000000    43.72000000
   H     39.52000000    48.19000000    45.20000000
   H     41.17000000    47.85000000    45.35000000
   N     41.12000000    42.53000000    46.89000000
   C     40.80000000    42.01000000    48.20000000
   C     41.32000000    40.58000000    48.33000000
   O     42.39000000    40.24000000    47.85000000
   C     41.31000000    42.97000000    49.27000000
   C     40.97000000    42.66000000    50.72000000
   O     40.41000000    41.57000000    50.99000000
   O     40.88000000    43.65000000    51.47000000
   H     42.10000000    42.45000000    46.63000000
   H     39.73000000    42.01000000    48.39000000
   H     40.91000000    43.97000000    49.08000000
   H     42.40000000    42.99000000    49.19000000
   N     40.53000000    39.68000000    48.92000000
   C     40.71000000    38.24000000    49.03000000
   C     42.01000000    37.71000000    49.61000000
   O     42.26000000    36.51000000    49.52000000
   H     39.68000000    40.01000000    49.35000000
   H     40.53000000    37.86000000    48.02000000
   H     39.85000000    37.85000000    49.57000000
   N     42.83000000    38.54000000    50.26000000
   C     44.27000000    38.37000000    50.27000000
   C     45.15000000    39.57000000    49.97000000
   O     46.23000000    39.43000000    49.39000000
   C     44.69000000    37.68000000    51.57000000
   C     44.15000000    38.39000000    52.80000000
   O     42.93000000    38.57000000    53.05000000
   O     44.94000000    38.79000000    53.68000000
   H     42.47000000    39.47000000    50.41000000
   H     44.49000000    37.63000000    49.50000000
   H     45.78000000    37.58000000    51.57000000
   H     44.35000000    36.65000000    51.55000000
   N     44.87000000    40.83000000    50.32000000
   C     43.92000000    41.37000000    51.27000000
   C     44.33000000    41.97000000    52.60000000
   O     43.49000000    42.08000000    53.50000000
   H     45.55000000    41.47000000    49.94000000
   H     43.10000000    40.66000000    51.41000000
   H     43.63000000    42.29000000    50.76000000
   N     45.52000000    42.48000000    52.91000000
   C     46.74000000    42.73000000    52.17000000
   C     46.38000000    43.43000000    50.86000000
   O     45.38000000    44.14000000    50.81000000
   C     47.59000000    41.47000000    52.06000000
   C     47.91000000    40.89000000    53.44000000
   C     48.60000000    39.54000000    53.26000000
   N     47.78000000    38.49000000    53.26000000
   O     49.81000000    39.42000000    53.10000000
   H     45.48000000    42.94000000    53.81000000
   H     47.27000000    43.54000000    52.68000000
   H     48.45000000    41.69000000    51.43000000
   H     47.07000000    40.62000000    51.62000000
   H     46.99000000    40.74000000    54.00000000
   H     48.66000000    41.52000000    53.93000000
   H     46.82000000    38.72000000    53.50000000
   H     48.11000000    37.67000000    52.77000000
   N     47.11000000    43.16000000    49.78000000
   C     47.29000000    43.88000000    48.54000000
   C     48.34000000    43.21000000    47.66000000
   O     48.48000000    41.99000000    47.74000000
   C     45.94000000    43.92000000    47.82000000
   C     45.39000000    42.66000000    47.17000000
   C     46.01000000    45.01000000    46.75000000
   H     47.86000000    42.50000000    49.96000000
   H     47.60000000    44.91000000    48.70000000
   H     45.15000000    44.19000000    48.52000000
   H     45.93000000    42.41000000    46.25000000
   H     45.60000000    41.85000000    47.87000000
   H     44.32000000    42.78000000    46.97000000
   H     44.99000000    45.28000000    46.45000000
   H     46.34000000    45.92000000    47.23000000
   H     46.65000000    44.73000000    45.91000000
   N     49.15000000    43.92000000    46.87000000
   C     50.08000000    43.42000000    45.88000000
   C     50.29000000    44.45000000    44.77000000
   O     51.18000000    45.29000000    44.91000000
   C     51.34000000    42.95000000    46.60000000
   C     52.37000000    42.17000000    45.80000000
   N     52.93000000    42.79000000    44.75000000
   O     52.66000000    41.01000000    46.08000000
   H     49.12000000    44.93000000    46.91000000
   H     49.69000000    42.51000000    45.42000000
   H     51.02000000    42.32000000    47.42000000
   H     51.86000000    43.81000000    47.01000000
   H     52.68000000    43.70000000    44.40000000
   H     53.62000000    42.26000000    44.24000000
   N     49.52000000    44.43000000    43.69000000
   C     49.82000000    45.01000000    42.40000000
   C     51.09000000    44.52000000    41.72000000
   O     52.10000000    44.25000000    42.38000000
   C     49.62000000    46.52000000    42.41000000
   C     50.83000000    47.41000000    42.67000000
   C     50.70000000    48.30000000    43.73000000
   C     51.87000000    47.60000000    41.75000000
   C     51.66000000    49.31000000    43.87000000
   C     52.86000000    48.58000000    41.89000000
   C     52.78000000    49.42000000    43.02000000
   O     53.75000000    50.35000000    43.24000000
   H     48.79000000    43.73000000    43.70000000
   H     48.98000000    44.69000000    41.79000000
   H     48.80000000    46.83000000    43.06000000
   H     49.28000000    46.82000000    41.42000000
   H     49.89000000    48.23000000    44.45000000
   H     51.85000000    46.94000000    40.89000000
   H     51.60000000    49.95000000    44.74000000
   H     53.61000000    48.68000000    41.13000000
   H     54.47000000    50.20000000    42.62000000
   N     51.00000000    44.26000000    40.42000000
   C     51.99000000    43.61000000    39.58000000
   C     51.18000000    42.88000000    38.52000000
   O     51.60000000    42.67000000    37.38000000
   C     53.11000000    44.56000000    39.14000000
   C     54.31000000    43.89000000    38.47000000
   C     54.82000000    42.66000000    39.22000000
   O     54.95000000    42.71000000    40.46000000
   O     55.21000000    41.60000000    38.69000000
   H     50.21000000    44.62000000    39.90000000
   H     52.54000000    42.89000000    40.19000000
   H     53.44000000    45.03000000    40.06000000
   H     52.62000000    45.17000000    38.38000000
   H     55.09000000    44.65000000    38.45000000
   H     54.01000000    43.59000000    37.47000000
   N     49.98000000    42.44000000    38.89000000
   C     48.92000000    42.00000000    38.00000000
   C     47.90000000    43.06000000    37.64000000
   O     47.60000000    43.11000000    36.45000000
   C     48.21000000    40.78000000    38.59000000
   C     47.19000000    41.02000000    39.70000000
   C     46.74000000    39.70000000    40.30000000
   O     45.76000000    39.07000000    39.83000000
   O     47.36000000    39.30000000    41.31000000
   H     49.84000000    42.41000000    39.89000000
   H     49.32000000    41.75000000    37.02000000
   H     48.99000000    40.13000000    38.97000000
   H     47.66000000    40.22000000    37.82000000
   H     46.38000000    41.52000000    39.16000000
   H     47.64000000    41.62000000    40.49000000
   N     47.43000000    43.95000000    38.52000000
   C     47.31000000    45.37000000    38.27000000
   H     46.45400000    45.76400000    38.81800000
   H     48.21700000    45.87600000    38.60200000
   H     47.16800000    45.54100000    37.20300000
   H     47.71000000    43.74000000    39.47000000
  Ca     47.41000000    37.89000000    43.43000000
   O     46.35000000    36.85000000    41.10000000
   H     46.33000000    37.71000000    40.69000000
   H     47.05000000    36.38000000    40.65000000
   O     48.81000000    40.08000000    45.32000000
   H     49.72000000    39.85000000    45.50000000
   H     48.37000000    39.99000000    46.17000000
   O     46.71000000    37.89000000    46.03000000
   H     46.77000000    37.17000000    46.65000000
   H     45.84000000    38.26000000    46.19000000
   O     49.07000000    35.98000000    42.50000000
   H     48.80000000    35.27000000    41.92000000
   H     49.87000000    35.67000000    42.92000000
   O     49.33000000    36.86000000    45.29000000
   H     50.23000000    36.75000000    44.99000000
   H     49.35000000    36.66000000    46.22000000
   O     46.21000000    35.56000000    44.03000000
   H     46.37000000    34.86000000    44.67000000
   H     45.57000000    35.17000000    43.42000000
   O     49.90000000    38.85000000    42.89000000
   H     49.65000000    39.49000000    42.22000000
   H     50.85000000    38.96000000    42.97000000

Ca 1.00



