%chk=loop4.cluster53.chk
%nprocshared=20
%mem=10GB
%nosave
#b3lyp/svp scf=(tight,noincore,xqc) Test 
#IOP(5/87=12) Density=Current Pop=(MK,readradii) iop(6/33=2) iop(6/42=6)

loop4.cluster53 

   -3  1 
   C     76.31000000    22.87000000    61.16000000
   C     77.54000000    22.46000000    61.94000000
   O     78.64000000    22.93000000    61.68000000
   H     75.52800000    23.18100000    61.85300000
   H     76.55900000    23.70000000    60.49800000
   H     75.95600000    22.02600000    60.56800000
   N     77.39000000    21.57000000    62.93000000
   C     78.42000000    21.01000000    63.77000000
   C     79.14000000    22.03000000    64.64000000
   O     80.37000000    22.05000000    64.66000000
   C     79.38000000    20.00000000    63.15000000
   C     78.66000000    18.96000000    62.31000000
   O     78.85000000    18.93000000    61.07000000
   O     77.78000000    18.23000000    62.81000000
   H     76.45000000    21.23000000    63.08000000
   H     77.79000000    20.43000000    64.44000000
   H     79.96000000    19.48000000    63.92000000
   H     80.01000000    20.65000000    62.54000000
   N     78.38000000    22.97000000    65.20000000
   C     78.77000000    24.06000000    66.06000000
   C     78.14000000    23.74000000    67.41000000
   O     76.92000000    23.58000000    67.46000000
   C     78.39000000    25.37000000    65.38000000
   C     78.94000000    25.59000000    63.97000000
   C     78.58000000    26.62000000    66.24000000
   C     78.38000000    26.79000000    63.21000000
   H     77.38000000    22.85000000    65.14000000
   H     79.83000000    24.27000000    66.18000000
   H     77.31000000    25.23000000    65.23000000
   H     78.71000000    24.68000000    63.42000000
   H     80.01000000    25.70000000    64.18000000
   H     77.90000000    27.41000000    65.92000000
   H     78.15000000    26.40000000    67.22000000
   H     79.59000000    27.01000000    66.34000000
   H     78.54000000    26.61000000    62.15000000
   H     77.38000000    27.09000000    63.52000000
   H     79.02000000    27.65000000    63.38000000
   N     78.84000000    23.53000000    68.52000000
   C     80.27000000    23.38000000    68.71000000
   C     80.68000000    21.98000000    68.28000000
   O     81.66000000    21.75000000    67.59000000
   C     80.61000000    23.73000000    70.16000000
   C     79.85000000    24.91000000    70.74000000
   O     79.32000000    24.76000000    71.86000000
   O     79.81000000    25.95000000    70.04000000
   H     78.30000000    23.32000000    69.35000000
   H     80.80000000    24.13000000    68.13000000
   H     81.69000000    23.84000000    70.10000000
   H     80.38000000    22.88000000    70.80000000
   N     79.97000000    20.94000000    68.73000000
   C     80.26000000    19.56000000    68.39000000
   C     81.60000000    19.26000000    69.04000000
   O     81.85000000    19.65000000    70.18000000
   H     79.19000000    21.07000000    69.36000000
   H     80.27000000    19.41000000    67.31000000
   H     79.51000000    18.94000000    68.87000000
   N     82.42000000    18.38000000    68.46000000
   C     83.70000000    17.91000000    68.95000000
   C     84.86000000    18.86000000    68.73000000
   O     85.87000000    18.72000000    69.43000000
   C     83.95000000    16.48000000    68.47000000
   C     83.65000000    16.24000000    67.00000000
   O     83.93000000    17.12000000    66.16000000
   O     83.11000000    15.15000000    66.69000000
   H     82.15000000    17.97000000    67.58000000
   H     83.53000000    17.81000000    70.02000000
   H     83.21000000    15.82000000    68.94000000
   H     84.91000000    16.01000000    68.70000000
   N     84.72000000    19.80000000    67.80000000
   C     85.74000000    20.60000000    67.15000000
   C     86.63000000    19.98000000    66.08000000
   O     87.62000000    20.63000000    65.73000000
   H     83.92000000    19.62000000    67.21000000
   H     86.46000000    20.94000000    67.89000000
   H     85.25000000    21.42000000    66.61000000
   N     86.19000000    18.84000000    65.54000000
   C     86.81000000    18.06000000    64.49000000
   C     87.12000000    18.82000000    63.20000000
   O     88.23000000    19.32000000    62.99000000
   C     88.04000000    17.31000000    64.98000000
   C     87.85000000    16.21000000    66.02000000
   C     89.14000000    15.49000000    66.38000000
   N     89.09000000    14.49000000    67.27000000
   O     90.24000000    15.79000000    65.93000000
   H     85.43000000    18.36000000    65.98000000
   H     86.12000000    17.26000000    64.22000000
   H     88.78000000    18.06000000    65.27000000
   H     88.57000000    16.92000000    64.10000000
   H     87.15000000    15.46000000    65.66000000
   H     87.40000000    16.67000000    66.90000000
   H     88.24000000    14.02000000    67.56000000
   H     90.00000000    14.09000000    67.44000000
   N     86.21000000    18.86000000    62.23000000
   C     86.31000000    19.51000000    60.94000000
   C     85.50000000    18.75000000    59.91000000
   O     84.54000000    18.03000000    60.18000000
   C     85.70000000    20.91000000    61.03000000
   C     84.24000000    21.00000000    61.47000000
   C     86.45000000    21.85000000    61.97000000
   H     85.37000000    18.35000000    62.45000000
   H     87.33000000    19.60000000    60.58000000
   H     85.71000000    21.29000000    60.01000000
   H     83.93000000    20.09000000    61.98000000
   H     84.22000000    21.76000000    62.25000000
   H     83.63000000    21.22000000    60.60000000
   H     87.45000000    21.91000000    61.54000000
   H     86.01000000    22.85000000    62.00000000
   H     86.55000000    21.37000000    62.94000000
   N     86.05000000    18.81000000    58.69000000
   C     85.43000000    18.35000000    57.46000000
   C     85.09000000    19.45000000    56.47000000
   O     85.64000000    20.55000000    56.57000000
   C     86.25000000    17.23000000    56.82000000
   C     87.30000000    17.73000000    55.83000000
   N     88.61000000    17.69000000    56.07000000
   O     86.97000000    18.21000000    54.75000000
   H     86.94000000    19.28000000    58.63000000
   H     84.47000000    17.93000000    57.75000000
   H     85.53000000    16.59000000    56.31000000
   H     86.69000000    16.78000000    57.71000000
   H     89.10000000    17.44000000    56.92000000
   H     89.16000000    18.15000000    55.36000000
   N     84.17000000    19.23000000    55.52000000
   C     83.66000000    20.26000000    54.65000000
   C     82.25000000    19.96000000    54.14000000
   O     82.02000000    19.90000000    52.94000000
   C     84.75000000    20.53000000    53.62000000
   C     84.83000000    21.94000000    53.09000000
   C     85.68000000    22.89000000    53.67000000
   C     84.21000000    22.31000000    51.88000000
   C     85.81000000    24.21000000    53.23000000
   C     84.41000000    23.58000000    51.35000000
   C     85.21000000    24.54000000    52.01000000
   O     85.38000000    25.71000000    51.33000000
   H     83.66000000    18.36000000    55.48000000
   H     83.54000000    21.22000000    55.15000000
   H     84.71000000    19.79000000    52.82000000
   H     85.75000000    20.25000000    53.95000000
   H     86.18000000    22.62000000    54.59000000
   H     83.60000000    21.59000000    51.36000000
   H     86.51000000    24.86000000    53.76000000
   H     83.97000000    23.88000000    50.41000000
   H     85.09000000    25.64000000    50.42000000
   N     81.32000000    19.77000000    55.07000000
   C     80.01000000    19.28000000    54.69000000
   C     79.10000000    20.39000000    54.16000000
   O     78.31000000    20.12000000    53.27000000
   C     79.26000000    18.55000000    55.79000000
   C     80.15000000    17.48000000    56.42000000
   C     79.60000000    16.67000000    57.59000000
   O     78.90000000    17.30000000    58.41000000
   O     80.01000000    15.50000000    57.76000000
   H     81.61000000    19.85000000    56.04000000
   H     80.12000000    18.53000000    53.91000000
   H     78.39000000    18.10000000    55.32000000
   H     79.04000000    19.34000000    56.51000000
   H     81.10000000    17.88000000    56.76000000
   H     80.33000000    16.81000000    55.58000000
   N     79.20000000    21.65000000    54.60000000
   C     79.73000000    22.19000000    55.84000000
   C     81.01000000    22.99000000    55.70000000
   O     81.48000000    23.27000000    54.60000000
   C     78.69000000    23.06000000    56.53000000
   C     77.31000000    22.42000000    56.64000000
   C     77.18000000    21.12000000    57.43000000
   O     76.42000000    20.22000000    57.02000000
   O     77.76000000    20.92000000    58.52000000
   H     78.59000000    22.28000000    54.10000000
   H     79.91000000    21.35000000    56.51000000
   H     78.67000000    23.91000000    55.84000000
   H     79.02000000    23.44000000    57.49000000
   H     76.94000000    22.30000000    55.62000000
   H     76.64000000    23.08000000    57.20000000
   N     81.50000000    23.45000000    56.86000000
   C     82.40000000    24.58000000    56.98000000
   H     83.31900000    24.37200000    56.43100000
   H     81.92400000    25.47000000    56.56700000
   H     82.63500000    24.74800000    58.03100000
   H     81.07000000    23.14000000    57.72000000
  Ca     76.84000000    18.64000000    59.31000000
   O     77.48000000    16.50000000    60.88000000
   H     77.76000000    17.19000000    61.48000000
   H     76.96000000    15.90000000    61.42000000
   O     76.27000000    16.55000000    57.75000000
   H     75.41000000    16.24000000    58.03000000
   H     76.72000000    15.76000000    57.45000000

Ca 1.00



