%chk=loop2.cluster14.chk
%nprocshared=20
%mem=10GB
%nosave
#b3lyp/svp scf=(tight,noincore,xqc) Test 
#IOP(5/87=12) Density=Current Pop=(MK,readradii) iop(6/33=2) iop(6/42=6)

loop2.cluster14 

   -2  1 
   C     51.33000000    43.78000000    15.92000000
   C     52.54000000    43.44000000    15.07000000
   O     53.32000000    44.34000000    14.76000000
   H     50.47500000    43.19100000    15.58600000
   H     51.54300000    43.55100000    16.96400000
   H     51.10100000    44.84100000    15.82000000
   N     52.57000000    42.21000000    14.55000000
   C     53.69000000    41.74000000    13.77000000
   C     53.74000000    42.42000000    12.40000000
   O     52.80000000    42.37000000    11.61000000
   C     53.67000000    40.24000000    13.49000000
   C     54.94000000    39.77000000    12.79000000
   O     56.05000000    40.29000000    13.04000000
   O     54.92000000    38.67000000    12.20000000
   H     51.75000000    41.63000000    14.69000000
   H     54.61000000    42.04000000    14.25000000
   H     52.81000000    39.88000000    12.92000000
   H     53.66000000    39.73000000    14.45000000
   N     54.86000000    43.05000000    12.04000000
   C     55.05000000    43.56000000    10.69000000
   C     55.84000000    42.70000000     9.71000000
   O     55.79000000    43.06000000     8.53000000
   C     55.72000000    44.92000000    10.85000000
   H     55.65000000    43.09000000    12.66000000
   H     54.08000000    43.63000000    10.20000000
   H     55.92000000    45.32000000     9.85000000
   H     55.19000000    45.61000000    11.51000000
   H     56.71000000    44.74000000    11.26000000
   N     56.51000000    41.65000000    10.16000000
   C     57.27000000    40.68000000     9.39000000
   C     56.45000000    39.57000000     8.76000000
   O     56.66000000    39.22000000     7.60000000
   C     58.39000000    40.07000000    10.24000000
   C     59.10000000    41.15000000    11.05000000
   O     59.21000000    41.07000000    12.29000000
   O     59.40000000    42.21000000    10.46000000
   H     56.39000000    41.53000000    11.16000000
   H     57.85000000    41.18000000     8.62000000
   H     59.10000000    39.58000000     9.57000000
   H     58.02000000    39.33000000    10.95000000
   N     55.49000000    38.98000000     9.46000000
   C     55.00000000    37.63000000     9.24000000
   C     55.82000000    36.52000000     9.88000000
   O     55.76000000    35.44000000     9.30000000
   H     55.43000000    39.27000000    10.43000000
   H     54.91000000    37.46000000     8.16000000
   H     54.03000000    37.62000000     9.73000000
   N     56.49000000    36.71000000    11.02000000
   C     57.34000000    35.76000000    11.71000000
   C     56.64000000    35.29000000    12.97000000
   O     56.99000000    34.19000000    13.41000000
   C     58.76000000    36.31000000    11.91000000
   C     58.87000000    37.19000000    13.15000000
   N     59.67000000    36.72000000    14.11000000
   O     58.20000000    38.19000000    13.38000000
   H     56.37000000    37.59000000    11.49000000
   H     57.51000000    34.90000000    11.08000000
   H     59.07000000    36.92000000    11.06000000
   H     59.39000000    35.43000000    12.01000000
   H     60.31000000    35.96000000    14.00000000
   H     59.64000000    37.16000000    15.02000000
   N     55.70000000    36.09000000    13.49000000
   C     54.81000000    35.72000000    14.57000000
   C     55.38000000    36.00000000    15.95000000
   O     54.95000000    35.32000000    16.88000000
   H     55.41000000    36.87000000    12.92000000
   H     54.50000000    34.68000000    14.43000000
   H     53.89000000    36.30000000    14.49000000
   N     56.41000000    36.84000000    16.12000000
   C     56.97000000    37.22000000    17.40000000
   C     57.18000000    38.72000000    17.55000000
   O     57.78000000    39.30000000    16.65000000
   C     58.28000000    36.53000000    17.79000000
   C     58.30000000    35.01000000    17.66000000
   O     59.26000000    36.89000000    16.85000000
   H     56.83000000    37.32000000    15.34000000
   H     56.23000000    36.85000000    18.10000000
   H     58.49000000    36.88000000    18.80000000
   H     60.11000000    36.57000000    17.16000000
   H     57.36000000    34.53000000    17.93000000
   H     58.64000000    34.64000000    16.70000000
   H     59.05000000    34.58000000    18.33000000
   N     56.87000000    39.34000000    18.69000000
   C     57.26000000    40.73000000    18.85000000
   C     58.76000000    40.84000000    19.09000000
   O     59.35000000    40.02000000    19.79000000
   C     56.45000000    41.53000000    19.87000000
   C     55.04000000    40.97000000    20.03000000
   C     56.26000000    42.99000000    19.47000000
   C     54.34000000    41.50000000    21.28000000
   H     56.36000000    38.85000000    19.41000000
   H     57.10000000    41.24000000    17.90000000
   H     56.90000000    41.34000000    20.84000000
   H     55.14000000    39.93000000    20.31000000
   H     54.47000000    41.15000000    19.12000000
   H     57.24000000    43.43000000    19.27000000
   H     55.62000000    43.08000000    18.59000000
   H     55.79000000    43.66000000    20.18000000
   H     53.99000000    42.52000000    21.11000000
   H     53.39000000    40.96000000    21.37000000
   H     54.83000000    41.30000000    22.23000000
   N     59.32000000    41.96000000    18.63000000
   C     60.70000000    42.39000000    18.76000000
   C     60.82000000    43.85000000    19.20000000
   O     59.91000000    44.64000000    18.95000000
   C     61.41000000    42.12000000    17.44000000
   C     60.85000000    42.91000000    16.26000000
   O     61.34000000    44.05000000    16.09000000
   O     60.02000000    42.24000000    15.60000000
   H     58.77000000    42.58000000    18.06000000
   H     61.08000000    41.78000000    19.58000000
   H     61.28000000    41.07000000    17.21000000
   H     62.48000000    42.33000000    17.56000000
   N     61.90000000    44.29000000    19.85000000
   C     61.85000000    45.57000000    20.52000000
   C     61.62000000    46.79000000    19.64000000
   O     60.98000000    47.72000000    20.12000000
   C     63.07000000    45.63000000    21.44000000
   C     62.94000000    46.72000000    22.48000000
   C     63.75000000    47.86000000    22.40000000
   C     61.99000000    46.64000000    23.50000000
   C     63.76000000    48.83000000    23.41000000
   C     62.08000000    47.58000000    24.54000000
   C     62.94000000    48.68000000    24.53000000
   H     62.70000000    43.67000000    19.85000000
   H     60.93000000    45.53000000    21.11000000
   H     63.98000000    45.74000000    20.85000000
   H     63.10000000    44.71000000    22.02000000
   H     64.30000000    47.99000000    21.48000000
   H     61.36000000    45.77000000    23.55000000
   H     64.44000000    49.66000000    23.29000000
   H     61.33000000    47.50000000    25.31000000
   H     62.81000000    49.47000000    25.27000000
   N     62.02000000    46.86000000    18.37000000
   C     61.67000000    47.95000000    17.48000000
   C     60.23000000    47.93000000    17.00000000
   O     59.60000000    48.94000000    16.71000000
   C     62.62000000    47.83000000    16.29000000
   C     63.84000000    47.06000000    16.79000000
   C     63.21000000    46.19000000    17.88000000
   H     61.82000000    48.91000000    17.97000000
   H     62.18000000    47.16000000    15.55000000
   H     62.83000000    48.77000000    15.76000000
   H     64.34000000    46.50000000    16.00000000
   H     64.52000000    47.74000000    17.31000000
   H     63.04000000    45.21000000    17.43000000
   H     63.93000000    46.16000000    18.70000000
   N     59.57000000    46.77000000    16.98000000
   C     58.17000000    46.56000000    16.65000000
   C     57.35000000    46.88000000    17.89000000
   O     56.28000000    47.48000000    17.81000000
   C     58.05000000    45.10000000    16.25000000
   C     56.72000000    44.74000000    15.59000000
   C     56.80000000    43.37000000    14.93000000
   O     57.11000000    43.23000000    13.73000000
   O     56.69000000    42.35000000    15.65000000
   H     60.06000000    45.99000000    17.39000000
   H     57.79000000    47.20000000    15.86000000
   H     58.18000000    44.42000000    17.09000000
   H     58.85000000    44.82000000    15.56000000
   H     56.33000000    45.43000000    14.84000000
   H     56.01000000    44.70000000    16.42000000
   N     57.90000000    46.53000000    19.05000000
   C     57.41000000    46.95000000    20.35000000
   H     56.38600000    46.60000000    20.48200000
   H     58.04200000    46.52700000    21.13100000
   H     57.43300000    48.03800000    20.41300000
   H     58.70000000    45.91000000    19.02000000
  Ca     58.18000000    40.65000000    14.54000000
   O     60.75000000    39.79000000    14.71000000
   H     61.27000000    40.45000000    14.26000000
   H     61.39000000    39.11000000    14.96000000

Ca 1.00



