%chk=loop2.cluster11.chk
%nprocshared=20
%mem=10GB
%nosave
#b3lyp/svp scf=(tight,noincore,xqc) Test 
#IOP(5/87=12) Density=Current Pop=(MK,readradii) iop(6/33=2) iop(6/42=6)

loop2.cluster11 

   -2  1 
   C     59.56000000    29.84000000    11.69000000
   C     59.83000000    29.97000000    10.20000000
   O     59.26000000    29.17000000     9.46000000
   H     58.51500000    29.57400000    11.84700000
   H     60.19900000    29.06300000    12.10900000
   H     59.77100000    30.78900000    12.18200000
   N     60.64000000    30.91000000     9.72000000
   C     61.10000000    31.11000000     8.36000000
   C     61.75000000    29.88000000     7.75000000
   O     61.45000000    29.59000000     6.59000000
   C     62.20000000    32.16000000     8.35000000
   C     62.80000000    32.33000000     6.96000000
   O     64.00000000    32.04000000     6.80000000
   O     62.05000000    32.81000000     6.09000000
   H     61.14000000    31.41000000    10.44000000
   H     60.36000000    31.54000000     7.68000000
   H     63.03000000    31.96000000     9.04000000
   H     61.79000000    33.13000000     8.63000000
   N     62.60000000    29.21000000     8.54000000
   C     62.98000000    27.84000000     8.28000000
   C     61.92000000    26.89000000     7.73000000
   O     62.30000000    25.92000000     7.08000000
   C     64.28000000    27.82000000     7.49000000
   H     63.03000000    29.64000000     9.34000000
   H     63.18000000    27.47000000     9.29000000
   H     65.08000000    28.42000000     7.94000000
   H     64.60000000    26.78000000     7.49000000
   H     64.12000000    28.16000000     6.47000000
   N     60.63000000    27.13000000     7.97000000
   C     59.41000000    26.42000000     7.62000000
   C     59.40000000    25.86000000     6.21000000
   O     59.50000000    24.66000000     5.97000000
   C     59.21000000    25.39000000     8.73000000
   C     57.82000000    24.77000000     8.69000000
   O     57.55000000    23.78000000     9.40000000
   O     56.88000000    25.42000000     8.20000000
   H     60.49000000    28.01000000     8.43000000
   H     58.61000000    27.13000000     7.83000000
   H     59.32000000    25.80000000     9.73000000
   H     59.92000000    24.56000000     8.68000000
   N     59.36000000    26.76000000     5.23000000
   C     59.30000000    26.45000000     3.82000000
   C     59.41000000    27.68000000     2.93000000
   O     60.51000000    28.22000000     2.81000000
   H     59.35000000    27.72000000     5.54000000
   H     58.40000000    25.84000000     3.68000000
   H     60.18000000    25.84000000     3.62000000
   N     58.27000000    28.07000000     2.36000000
   C     58.17000000    29.19000000     1.44000000
   C     57.60000000    30.46000000     2.05000000
   O     56.81000000    30.50000000     2.99000000
   C     57.48000000    28.87000000     0.12000000
   C     55.98000000    29.13000000     0.16000000
   N     55.46000000    29.98000000    -0.73000000
   O     55.22000000    28.72000000     1.03000000
   H     57.43000000    27.57000000     2.62000000
   H     59.20000000    29.43000000     1.19000000
   H     57.76000000    27.88000000    -0.24000000
   H     57.89000000    29.57000000    -0.61000000
   H     55.98000000    30.18000000    -1.58000000
   H     54.47000000    30.15000000    -0.67000000
   N     57.87000000    31.55000000     1.32000000
   C     57.13000000    32.77000000     1.53000000
   C     57.61000000    33.58000000     2.73000000
   O     58.52000000    34.40000000     2.59000000
   H     58.58000000    31.58000000     0.60000000
   H     56.10000000    32.44000000     1.55000000
   H     57.22000000    33.40000000     0.64000000
   N     57.07000000    33.27000000     3.91000000
   C     57.32000000    34.00000000     5.13000000
   C     56.16000000    33.99000000     6.11000000
   O     55.24000000    33.21000000     5.87000000
   C     58.61000000    33.42000000     5.70000000
   C     59.12000000    34.08000000     6.98000000
   O     58.48000000    32.04000000     5.95000000
   H     56.46000000    32.46000000     3.87000000
   H     57.57000000    35.04000000     4.91000000
   H     59.42000000    33.48000000     4.97000000
   H     59.20000000    31.64000000     5.45000000
   H     58.93000000    35.14000000     7.16000000
   H     58.81000000    33.51000000     7.86000000
   H     60.20000000    33.99000000     6.90000000
   N     56.19000000    34.62000000     7.29000000
   C     55.21000000    34.49000000     8.35000000
   C     54.97000000    33.03000000     8.71000000
   O     55.85000000    32.18000000     8.73000000
   C     55.49000000    35.38000000     9.56000000
   C     54.22000000    35.59000000    10.39000000
   C     56.80000000    35.03000000    10.24000000
   C     54.11000000    37.06000000    10.77000000
   H     57.01000000    35.20000000     7.42000000
   H     54.30000000    34.88000000     7.89000000
   H     55.70000000    36.32000000     9.05000000
   H     54.38000000    34.96000000    11.26000000
   H     53.28000000    35.24000000     9.97000000
   H     56.62000000    34.06000000    10.71000000
   H     57.66000000    34.93000000     9.58000000
   H     57.15000000    35.79000000    10.94000000
   H     53.90000000    37.71000000     9.92000000
   H     53.45000000    37.15000000    11.63000000
   H     55.02000000    37.30000000    11.30000000
   N     53.72000000    32.72000000     9.07000000
   C     53.28000000    31.34000000     9.12000000
   C     51.92000000    31.14000000     8.48000000
   O     51.81000000    30.71000000     7.34000000
   C     53.29000000    30.81000000    10.55000000
   C     52.98000000    29.32000000    10.54000000
   O     53.89000000    28.50000000    10.29000000
   O     51.76000000    29.06000000    10.65000000
   H     52.98000000    33.40000000     8.95000000
   H     53.92000000    30.68000000     8.53000000
   H     52.57000000    31.30000000    11.20000000
   H     54.26000000    31.05000000    10.97000000
   N     50.88000000    31.59000000     9.20000000
   C     49.49000000    31.38000000     8.84000000
   C     48.74000000    30.38000000     9.70000000
   O     48.22000000    29.47000000     9.06000000
   C     48.81000000    32.73000000     8.65000000
   C     47.54000000    32.70000000     7.83000000
   C     47.57000000    32.19000000     6.53000000
   C     46.35000000    33.18000000     8.41000000
   C     46.32000000    32.11000000     5.89000000
   C     45.15000000    33.09000000     7.70000000
   C     45.11000000    32.61000000     6.38000000
   H     50.99000000    32.18000000    10.01000000
   H     49.56000000    30.97000000     7.83000000
   H     49.46000000    33.41000000     8.11000000
   H     48.58000000    33.16000000     9.63000000
   H     48.48000000    31.89000000     6.03000000
   H     46.38000000    33.62000000     9.39000000
   H     46.29000000    31.72000000     4.88000000
   H     44.30000000    33.54000000     8.20000000
   H     44.22000000    32.54000000     5.78000000
   N     48.79000000    30.35000000    11.04000000
   C     49.04000000    31.47000000    11.92000000
   C     50.00000000    31.16000000    13.07000000
   O     50.04000000    31.96000000    14.00000000
   C     47.62000000    31.82000000    12.36000000
   C     46.86000000    30.50000000    12.36000000
   C     47.83000000    29.50000000    11.72000000
   H     49.51000000    32.32000000    11.43000000
   H     47.59000000    32.21000000    13.38000000
   H     47.05000000    32.51000000    11.74000000
   H     46.68000000    30.16000000    13.38000000
   H     45.95000000    30.51000000    11.77000000
   H     48.37000000    29.08000000    12.57000000
   H     47.45000000    28.72000000    11.07000000
   N     50.79000000    30.09000000    13.02000000
   C     51.56000000    29.61000000    14.15000000
   C     52.90000000    30.24000000    14.47000000
   O     54.02000000    29.75000000    14.30000000
   C     51.77000000    28.10000000    13.98000000
   C     50.56000000    27.20000000    13.75000000
   C     49.53000000    27.24000000    14.87000000
   O     49.86000000    27.76000000    15.96000000
   O     48.45000000    26.62000000    14.81000000
   H     50.74000000    29.48000000    12.22000000
   H     51.07000000    29.62000000    15.13000000
   H     52.41000000    27.70000000    14.76000000
   H     52.42000000    27.89000000    13.14000000
   H     50.94000000    26.18000000    13.69000000
   H     50.12000000    27.37000000    12.76000000
   N     52.80000000    31.47000000    14.99000000
   C     53.94000000    32.28000000    15.38000000
   H     54.76000000    32.11200000    14.68200000
   H     53.66100000    33.33300000    15.36400000
   H     54.25600000    32.00300000    16.38600000
   H     51.85000000    31.81000000    15.03000000
  Ca     55.10000000    27.25000000     8.39000000
   O     56.50000000    27.21000000     6.04000000
   H     56.60000000    27.91000000     5.40000000
   H     56.57000000    26.40000000     5.53000000
   O     54.10000000    25.37000000     6.51000000
   H     53.67000000    25.16000000     5.68000000
   H     54.55000000    24.56000000     6.75000000
   O     56.89000000    27.71000000    10.35000000
   H     56.83000000    27.69000000    11.31000000
   H     57.52000000    28.41000000    10.17000000
   O     54.93000000    25.41000000    10.68000000
   H     55.70000000    24.86000000    10.54000000
   H     54.79000000    25.38000000    11.62000000
   O     56.35000000    29.56000000     8.06000000
   H     56.66000000    29.42000000     7.17000000
   H     56.15000000    30.49000000     8.11000000
   O     52.68000000    26.32000000     8.88000000
   H     51.95000000    26.19000000     8.28000000
   H     52.28000000    26.44000000     9.74000000
   O     53.78000000    29.00000000     6.87000000
   H     52.89000000    29.33000000     6.99000000
   H     54.21000000    29.67000000     6.34000000

Ca 1.00



