%chk=loop4.cluster138.chk
%nprocshared=20
%mem=10GB
%nosave
#b3lyp/svp scf=(tight,noincore,xqc) Test 
#IOP(5/87=12) Density=Current Pop=(MK,readradii) iop(6/33=2) iop(6/42=6)

loop4.cluster138 

   -3  1 
   C     88.45000000    50.98000000    26.85000000
   C     88.20000000    49.48000000    26.76000000
   O     87.17000000    48.96000000    27.17000000
   H     89.37800000    51.22500000    26.33300000
   H     87.62300000    51.51500000    26.38400000
   H     88.52900000    51.27400000    27.89700000
   N     89.12000000    48.80000000    26.07000000
   C     89.05000000    47.36000000    25.90000000
   C     89.55000000    46.69000000    27.18000000
   O     90.64000000    46.91000000    27.70000000
   C     89.89000000    46.93000000    24.70000000
   C     90.15000000    45.45000000    24.52000000
   O     89.38000000    44.53000000    24.88000000
   O     91.16000000    45.15000000    23.84000000
   H     90.01000000    49.17000000    25.77000000
   H     88.01000000    47.06000000    25.79000000
   H     90.86000000    47.43000000    24.75000000
   H     89.39000000    47.36000000    23.83000000
   N     88.75000000    45.73000000    27.63000000
   C     88.93000000    45.11000000    28.93000000
   C     89.62000000    43.75000000    28.91000000
   O     90.40000000    43.50000000    29.82000000
   C     87.61000000    44.93000000    29.66000000
   C     86.70000000    46.16000000    29.71000000
   C     87.79000000    44.43000000    31.09000000
   C     87.01000000    47.50000000    30.37000000
   H     88.01000000    45.33000000    27.06000000
   H     89.50000000    45.77000000    29.58000000
   H     87.10000000    44.14000000    29.11000000
   H     85.74000000    45.77000000    30.06000000
   H     86.47000000    46.39000000    28.67000000
   H     88.28000000    43.46000000    31.09000000
   H     88.25000000    45.18000000    31.73000000
   H     86.81000000    44.29000000    31.53000000
   H     86.06000000    48.04000000    30.28000000
   H     87.28000000    47.33000000    31.41000000
   H     87.82000000    47.99000000    29.85000000
   N     89.32000000    42.95000000    27.88000000
   C     89.83000000    41.59000000    27.90000000
   C     90.94000000    41.33000000    26.89000000
   O     91.53000000    40.27000000    27.07000000
   C     88.70000000    40.60000000    27.65000000
   C     87.97000000    40.63000000    26.32000000
   O     87.86000000    41.75000000    25.78000000
   O     87.68000000    39.55000000    25.75000000
   H     89.01000000    43.37000000    27.02000000
   H     90.24000000    41.43000000    28.89000000
   H     87.97000000    40.82000000    28.44000000
   H     88.97000000    39.56000000    27.80000000
   N     91.27000000    42.15000000    25.89000000
   C     92.58000000    42.06000000    25.27000000
   C     92.64000000    41.47000000    23.87000000
   O     93.19000000    40.39000000    23.65000000
   H     90.72000000    42.96000000    25.66000000
   H     93.41000000    41.71000000    25.88000000
   H     92.84000000    43.11000000    25.15000000
   N     92.04000000    42.19000000    22.93000000
   C     92.01000000    41.93000000    21.50000000
   C     92.08000000    43.20000000    20.67000000
   O     92.08000000    43.07000000    19.44000000
   C     90.78000000    41.11000000    21.11000000
   C     89.46000000    41.81000000    21.39000000
   O     88.46000000    41.55000000    20.69000000
   O     89.22000000    42.72000000    22.22000000
   H     91.37000000    42.85000000    23.30000000
   H     92.93000000    41.40000000    21.25000000
   H     90.96000000    40.19000000    21.66000000
   H     90.89000000    40.82000000    20.07000000
   N     91.93000000    44.41000000    21.22000000
   C     92.10000000    45.67000000    20.52000000
   C     90.83000000    46.30000000    19.96000000
   O     90.90000000    47.11000000    19.04000000
   H     91.87000000    44.44000000    22.23000000
   H     92.90000000    45.66000000    19.78000000
   H     92.36000000    46.40000000    21.28000000
   N     89.66000000    45.87000000    20.43000000
   C     88.35000000    46.30000000    19.99000000
   C     87.50000000    46.58000000    21.23000000
   O     87.64000000    45.86000000    22.22000000
   C     87.80000000    45.13000000    19.18000000
   C     88.39000000    45.18000000    17.77000000
   C     87.48000000    44.44000000    16.80000000
   N     87.45000000    43.10000000    16.82000000
   O     86.65000000    45.06000000    16.13000000
   H     89.58000000    45.10000000    21.08000000
   H     88.26000000    47.20000000    19.38000000
   H     86.72000000    45.30000000    19.12000000
   H     87.88000000    44.22000000    19.76000000
   H     89.40000000    44.76000000    17.77000000
   H     88.48000000    46.23000000    17.51000000
   H     88.08000000    42.69000000    17.50000000
   H     86.73000000    42.70000000    16.23000000
   N     86.64000000    47.60000000    21.19000000
   C     85.77000000    47.94000000    22.29000000
   C     84.33000000    47.59000000    21.93000000
   O     83.63000000    48.38000000    21.31000000
   C     85.82000000    49.45000000    22.54000000
   C     84.96000000    49.78000000    23.76000000
   C     87.26000000    49.89000000    22.79000000
   H     86.83000000    48.22000000    20.42000000
   H     86.14000000    47.47000000    23.20000000
   H     85.52000000    49.97000000    21.63000000
   H     83.91000000    49.54000000    23.63000000
   H     85.39000000    49.19000000    24.57000000
   H     85.02000000    50.86000000    23.85000000
   H     87.23000000    50.92000000    23.15000000
   H     87.65000000    49.28000000    23.60000000
   H     87.79000000    49.86000000    21.84000000
   N     83.85000000    46.43000000    22.38000000
   C     82.45000000    46.05000000    22.31000000
   C     81.58000000    47.07000000    23.03000000
   O     81.98000000    47.79000000    23.94000000
   C     82.24000000    44.61000000    22.76000000
   C     80.78000000    44.18000000    22.79000000
   N     80.18000000    43.97000000    21.62000000
   O     80.33000000    43.85000000    23.89000000
   H     84.52000000    45.82000000    22.82000000
   H     82.09000000    45.98000000    21.29000000
   H     82.59000000    44.48000000    23.79000000
   H     82.87000000    43.93000000    22.18000000
   H     80.54000000    44.33000000    20.75000000
   H     79.38000000    43.35000000    21.60000000
   N     80.30000000    47.16000000    22.67000000
   C     79.28000000    47.85000000    23.44000000
   C     79.25000000    47.53000000    24.93000000
   O     79.22000000    48.46000000    25.73000000
   C     77.90000000    47.75000000    22.80000000
   C     76.96000000    48.78000000    23.40000000
   C     76.89000000    50.02000000    22.76000000
   C     76.18000000    48.41000000    24.50000000
   C     76.14000000    51.03000000    23.38000000
   C     75.36000000    49.41000000    25.03000000
   C     75.41000000    50.73000000    24.55000000
   O     74.52000000    51.69000000    24.95000000
   H     80.03000000    46.52000000    21.94000000
   H     79.60000000    48.88000000    23.30000000
   H     77.52000000    46.74000000    22.93000000
   H     78.01000000    48.01000000    21.75000000
   H     77.44000000    50.14000000    21.84000000
   H     76.28000000    47.40000000    24.89000000
   H     76.17000000    52.03000000    23.00000000
   H     74.74000000    49.21000000    25.89000000
   H     73.89000000    51.47000000    25.64000000
   N     79.37000000    46.30000000    25.43000000
   C     79.53000000    45.99000000    26.84000000
   C     80.78000000    46.52000000    27.53000000
   O     80.90000000    46.63000000    28.75000000
   C     79.24000000    44.51000000    27.06000000
   C     78.51000000    44.20000000    28.37000000
   C     78.30000000    42.70000000    28.58000000
   O     77.43000000    42.00000000    28.03000000
   O     79.18000000    42.11000000    29.24000000
   H     79.25000000    45.49000000    24.83000000
   H     78.78000000    46.61000000    27.34000000
   H     80.12000000    43.87000000    27.01000000
   H     78.55000000    44.21000000    26.28000000
   H     77.54000000    44.68000000    28.33000000
   H     79.21000000    44.67000000    29.06000000
   N     81.74000000    47.03000000    26.76000000
   C     82.99000000    47.59000000    27.22000000
   C     82.86000000    49.10000000    27.26000000
   O     83.49000000    49.74000000    28.10000000
   C     84.17000000    47.15000000    26.37000000
   C     84.32000000    45.63000000    26.44000000
   C     85.48000000    45.25000000    25.53000000
   O     86.54000000    44.76000000    26.00000000
   O     85.41000000    45.36000000    24.29000000
   H     81.56000000    47.14000000    25.77000000
   H     83.13000000    47.26000000    28.25000000
   H     85.05000000    47.59000000    26.83000000
   H     84.22000000    47.55000000    25.35000000
   H     83.46000000    45.05000000    26.13000000
   H     84.50000000    45.35000000    27.48000000
   N     82.14000000    49.73000000    26.33000000
   C     81.92000000    51.15000000    26.19000000
   H     81.00300000    51.42800000    26.70900000
   H     82.76000000    51.69300000    26.62300000
   H     81.83000000    51.40200000    25.13300000
   H     81.74000000    49.19000000    25.57000000
  Ca     87.35000000    43.56000000    23.77000000
   O     84.81000000    42.47000000    24.44000000
   H     84.46000000    41.58000000    24.43000000
   H     84.70000000    42.76000000    25.35000000
   O     86.46000000    43.05000000    21.31000000
   H     87.29000000    42.61000000    21.15000000
   H     86.03000000    43.08000000    20.45000000
   O     87.12000000    40.77000000    23.31000000
   H     86.73000000    40.01000000    22.87000000
   H     87.16000000    40.51000000    24.24000000

Ca 1.00



