%chk=loop2.cluster109.chk
%nprocshared=20
%mem=10GB
%nosave
#b3lyp/svp scf=(tight,noincore,xqc) Test 
#IOP(5/87=12) Density=Current Pop=(MK,readradii) iop(6/33=2) iop(6/42=6)

loop2.cluster109 

   -2  1 
   C     86.14000000    81.99000000    39.35000000
   C     87.28000000    81.76000000    40.33000000
   O     87.93000000    82.69000000    40.79000000
   H     85.31500000    82.48500000    39.86300000
   H     86.48700000    82.61800000    38.52900000
   H     85.80000000    81.03200000    38.95600000
   N     87.65000000    80.48000000    40.46000000
   C     88.77000000    79.92000000    41.20000000
   C     88.58000000    79.97000000    42.71000000
   O     89.15000000    79.11000000    43.38000000
   C     89.21000000    78.61000000    40.57000000
   C     90.66000000    78.20000000    40.79000000
   O     91.01000000    77.03000000    40.54000000
   O     91.54000000    79.02000000    41.15000000
   H     87.16000000    79.73000000    40.00000000
   H     89.57000000    80.62000000    40.99000000
   H     89.09000000    78.60000000    39.49000000
   H     88.58000000    77.84000000    41.03000000
   N     87.67000000    80.79000000    43.24000000
   C     87.39000000    80.79000000    44.66000000
   C     85.93000000    81.20000000    44.82000000
   O     85.39000000    81.96000000    44.02000000
   C     88.34000000    81.75000000    45.38000000
   H     87.10000000    81.39000000    42.66000000
   H     87.55000000    79.81000000    45.11000000
   H     88.36000000    81.54000000    46.45000000
   H     89.37000000    81.57000000    45.09000000
   H     88.17000000    82.80000000    45.14000000
   N     85.26000000    80.94000000    45.94000000
   C     85.73000000    80.47000000    47.23000000
   C     85.49000000    78.98000000    47.46000000
   O     84.85000000    78.33000000    46.63000000
   C     85.15000000    81.25000000    48.41000000
   C     85.24000000    82.76000000    48.22000000
   O     86.36000000    83.26000000    48.43000000
   O     84.18000000    83.36000000    47.92000000
   H     84.31000000    81.26000000    45.92000000
   H     86.81000000    80.55000000    47.34000000
   H     85.60000000    80.95000000    49.36000000
   H     84.08000000    81.07000000    48.46000000
   N     86.02000000    78.37000000    48.52000000
   C     86.24000000    76.94000000    48.50000000
   C     87.05000000    76.58000000    47.26000000
   O     87.97000000    77.30000000    46.88000000
   H     86.53000000    78.92000000    49.19000000
   H     85.30000000    76.40000000    48.39000000
   H     86.76000000    76.62000000    49.40000000
   N     86.90000000    75.39000000    46.67000000
   C     86.09000000    74.29000000    47.15000000
   C     84.58000000    74.42000000    46.96000000
   O     83.78000000    73.64000000    47.47000000
   C     86.62000000    73.06000000    46.41000000
   C     86.70000000    71.77000000    47.23000000
   N     85.58000000    71.42000000    47.86000000
   O     87.69000000    71.05000000    47.14000000
   H     87.58000000    75.21000000    45.95000000
   H     86.27000000    74.19000000    48.22000000
   H     87.66000000    73.22000000    46.11000000
   H     86.03000000    72.84000000    45.52000000
   H     84.80000000    72.04000000    48.05000000
   H     85.64000000    70.55000000    48.36000000
   N     84.13000000    75.47000000    46.27000000
   C     82.73000000    75.84000000    46.15000000
   C     82.01000000    76.25000000    47.42000000
   O     80.93000000    75.71000000    47.68000000
   H     84.81000000    76.17000000    46.03000000
   H     82.21000000    74.99000000    45.70000000
   H     82.71000000    76.72000000    45.50000000
   N     82.56000000    77.14000000    48.25000000
   C     82.02000000    77.77000000    49.44000000
   C     81.54000000    79.18000000    49.13000000
   O     81.99000000    80.19000000    49.68000000
   C     83.03000000    77.78000000    50.58000000
   C     82.52000000    78.16000000    51.96000000
   O     83.48000000    76.46000000    50.82000000
   H     83.46000000    77.45000000    47.91000000
   H     81.21000000    77.15000000    49.80000000
   H     83.86000000    78.40000000    50.23000000
   H     84.32000000    76.57000000    51.28000000
   H     82.17000000    79.19000000    51.95000000
   H     81.66000000    77.58000000    52.29000000
   H     83.33000000    78.10000000    52.70000000
   N     80.56000000    79.28000000    48.22000000
   C     80.15000000    80.55000000    47.66000000
   C     78.90000000    81.03000000    48.39000000
   O     78.00000000    80.30000000    48.81000000
   C     80.09000000    80.50000000    46.14000000
   C     81.49000000    80.43000000    45.55000000
   C     79.22000000    79.37000000    45.58000000
   C     81.65000000    80.52000000    44.03000000
   H     80.10000000    78.46000000    47.85000000
   H     80.87000000    81.32000000    47.91000000
   H     79.65000000    81.43000000    45.78000000
   H     82.00000000    79.60000000    46.03000000
   H     82.11000000    81.26000000    45.88000000
   H     79.82000000    78.47000000    45.61000000
   H     78.27000000    79.38000000    46.11000000
   H     79.04000000    79.68000000    44.55000000
   H     81.09000000    81.34000000    43.59000000
   H     82.69000000    80.64000000    43.74000000
   H     81.25000000    79.61000000    43.59000000
   N     78.78000000    82.36000000    48.44000000
   C     77.62000000    83.08000000    48.92000000
   C     76.40000000    82.99000000    48.03000000
   O     76.52000000    82.63000000    46.86000000
   C     77.90000000    84.54000000    49.27000000
   C     79.32000000    84.83000000    49.72000000
   O     79.90000000    84.02000000    50.48000000
   O     80.00000000    85.73000000    49.18000000
   H     79.55000000    82.87000000    48.04000000
   H     77.31000000    82.55000000    49.82000000
   H     77.10000000    84.83000000    49.96000000
   H     77.84000000    85.13000000    48.35000000
   N     75.19000000    83.31000000    48.49000000
   C     73.96000000    83.32000000    47.72000000
   C     74.12000000    83.92000000    46.33000000
   O     74.02000000    83.10000000    45.42000000
   C     73.51000000    81.86000000    47.73000000
   C     72.03000000    81.64000000    47.60000000
   C     71.49000000    81.60000000    46.31000000
   C     71.18000000    81.57000000    48.72000000
   C     70.11000000    81.74000000    46.12000000
   C     69.79000000    81.63000000    48.57000000
   C     69.30000000    81.71000000    47.26000000
   H     75.20000000    83.66000000    49.44000000
   H     73.19000000    83.87000000    48.26000000
   H     73.70000000    81.31000000    48.66000000
   H     74.12000000    81.32000000    47.00000000
   H     72.07000000    81.62000000    45.40000000
   H     71.60000000    81.57000000    49.71000000
   H     69.75000000    81.74000000    45.10000000
   H     69.14000000    81.67000000    49.43000000
   H     68.23000000    81.75000000    47.07000000
   N     74.37000000    85.20000000    46.05000000
   C     74.29000000    85.71000000    44.70000000
   C     75.57000000    85.46000000    43.90000000
   O     75.48000000    85.46000000    42.68000000
   C     74.18000000    87.22000000    44.88000000
   C     73.62000000    87.45000000    46.28000000
   C     74.24000000    86.27000000    47.02000000
   H     73.42000000    85.37000000    44.15000000
   H     75.18000000    87.65000000    44.89000000
   H     73.50000000    87.65000000    44.15000000
   H     73.95000000    88.41000000    46.67000000
   H     72.54000000    87.26000000    46.23000000
   H     75.25000000    86.52000000    47.33000000
   H     73.58000000    85.96000000    47.84000000
   N     76.67000000    85.13000000    44.59000000
   C     77.97000000    84.66000000    44.16000000
   C     77.98000000    83.25000000    43.58000000
   O     78.76000000    82.89000000    42.71000000
   C     78.81000000    84.61000000    45.43000000
   C     80.31000000    84.68000000    45.16000000
   C     81.11000000    84.62000000    46.46000000
   O     81.00000000    83.70000000    47.29000000
   O     81.90000000    85.52000000    46.80000000
   H     76.54000000    85.22000000    45.59000000
   H     78.43000000    85.37000000    43.47000000
   H     78.49000000    83.80000000    46.09000000
   H     78.64000000    85.58000000    45.91000000
   H     80.49000000    85.54000000    44.51000000
   H     80.65000000    83.78000000    44.65000000
   N     77.03000000    82.42000000    44.01000000
   C     76.53000000    81.29000000    43.25000000
   H     75.61200000    81.57600000    42.73700000
   H     77.27600000    80.98700000    42.51600000
   H     76.32500000    80.45900000    43.92500000
   H     76.40000000    82.77000000    44.72000000
  Ca     82.35000000    84.63000000    49.26000000
   O     84.92000000    85.29000000    49.59000000
   H     85.72000000    84.79000000    49.43000000
   H     85.22000000    86.08000000    50.04000000
   O     82.59000000    82.41000000    50.85000000
   H     82.17000000    82.49000000    51.71000000
   H     82.28000000    81.56000000    50.52000000
   O     82.63000000    85.62000000    51.78000000
   H     82.70000000    85.61000000    52.73000000
   H     82.04000000    86.35000000    51.59000000
   O     82.63000000    87.29000000    49.18000000
   H     83.23000000    88.03000000    49.12000000
   H     81.76000000    87.69000000    49.17000000

Ca 1.00



