%chk=loop2.cluster172.chk
%nprocshared=20
%mem=10GB
%nosave
#b3lyp/svp scf=(tight,noincore,xqc) Test 
#IOP(5/87=12) Density=Current Pop=(MK,readradii) iop(6/33=2) iop(6/42=6)

loop2.cluster172 

   -2  1 
   C     58.48000000    49.32000000    17.98000000
   C     59.58000000    49.25000000    16.93000000
   O     60.35000000    50.20000000    16.86000000
   H     57.57000000    48.87100000    17.58200000
   H     58.79300000    48.77700000    18.87200000
   H     58.28800000    50.36200000    18.23700000
   N     59.64000000    48.18000000    16.13000000
   C     60.66000000    47.88000000    15.14000000
   C     60.66000000    48.89000000    14.01000000
   O     60.28000000    48.54000000    12.89000000
   C     60.51000000    46.42000000    14.72000000
   C     61.73000000    45.82000000    14.05000000
   O     62.83000000    46.41000000    14.13000000
   O     61.56000000    44.82000000    13.32000000
   H     59.07000000    47.39000000    16.41000000
   H     61.62000000    47.85000000    15.65000000
   H     59.61000000    46.32000000    14.11000000
   H     60.38000000    45.71000000    15.54000000
   N     61.00000000    50.18000000    14.16000000
   C     60.82000000    51.22000000    13.17000000
   C     61.78000000    51.05000000    12.00000000
   O     61.64000000    51.81000000    11.05000000
   C     60.98000000    52.57000000    13.87000000
   H     61.27000000    50.40000000    15.11000000
   H     59.80000000    51.07000000    12.82000000
   H     60.75000000    53.37000000    13.17000000
   H     60.36000000    52.50000000    14.77000000
   H     62.01000000    52.72000000    14.19000000
   N     62.79000000    50.17000000    11.95000000
   C     63.71000000    50.00000000    10.84000000
   C     63.48000000    48.61000000    10.25000000
   O     64.17000000    48.30000000     9.28000000
   C     65.10000000    50.24000000    11.40000000
   C     65.55000000    49.41000000    12.60000000
   O     64.75000000    48.58000000    13.08000000
   O     66.71000000    49.55000000    13.05000000
   H     63.19000000    49.75000000    12.78000000
   H     63.45000000    50.75000000    10.10000000
   H     65.14000000    51.24000000    11.83000000
   H     65.79000000    50.22000000    10.56000000
   N     62.46000000    47.87000000    10.69000000
   C     61.97000000    46.61000000    10.18000000
   C     63.09000000    45.59000000    10.12000000
   O     63.46000000    45.15000000     9.03000000
   H     61.94000000    48.28000000    11.45000000
   H     61.64000000    46.83000000     9.16000000
   H     61.09000000    46.31000000    10.74000000
   N     63.72000000    45.20000000    11.23000000
   C     64.89000000    44.35000000    11.28000000
   C     64.69000000    43.10000000    12.12000000
   O     65.48000000    42.15000000    12.19000000
   C     66.14000000    45.09000000    11.76000000
   C     66.51000000    44.92000000    13.22000000
   N     67.64000000    44.27000000    13.49000000
   O     65.85000000    45.40000000    14.14000000
   H     63.32000000    45.47000000    12.12000000
   H     65.14000000    43.94000000    10.30000000
   H     65.95000000    46.16000000    11.63000000
   H     66.99000000    44.82000000    11.14000000
   H     68.20000000    43.95000000    12.71000000
   H     67.91000000    44.14000000    14.46000000
   N     63.62000000    43.09000000    12.92000000
   C     63.26000000    42.00000000    13.80000000
   C     63.66000000    42.00000000    15.27000000
   O     63.30000000    41.05000000    15.95000000
   H     63.09000000    43.95000000    13.00000000
   H     63.64000000    41.04000000    13.44000000
   H     62.19000000    41.82000000    13.77000000
   N     64.46000000    42.97000000    15.72000000
   C     65.00000000    43.03000000    17.06000000
   C     65.04000000    44.48000000    17.54000000
   O     65.03000000    45.42000000    16.75000000
   C     66.29000000    42.27000000    17.32000000
   C     66.10000000    40.75000000    17.34000000
   O     67.16000000    42.35000000    16.21000000
   H     64.76000000    43.71000000    15.11000000
   H     64.26000000    42.50000000    17.66000000
   H     66.81000000    42.52000000    18.24000000
   H     67.54000000    43.24000000    16.23000000
   H     65.77000000    40.32000000    16.40000000
   H     67.07000000    40.33000000    17.61000000
   H     65.46000000    40.49000000    18.19000000
   N     65.05000000    44.74000000    18.85000000
   C     65.16000000    46.06000000    19.45000000
   C     66.65000000    46.38000000    19.47000000
   O     67.45000000    45.61000000    19.99000000
   C     64.44000000    46.28000000    20.77000000
   C     63.12000000    45.52000000    20.89000000
   C     64.21000000    47.76000000    21.07000000
   C     62.53000000    45.63000000    22.30000000
   H     65.06000000    43.93000000    19.45000000
   H     64.71000000    46.74000000    18.72000000
   H     65.15000000    45.88000000    21.49000000
   H     63.26000000    44.46000000    20.66000000
   H     62.34000000    45.92000000    20.25000000
   H     63.23000000    48.10000000    20.74000000
   H     64.14000000    47.84000000    22.15000000
   H     64.99000000    48.40000000    20.67000000
   H     63.22000000    45.23000000    23.04000000
   H     62.26000000    46.64000000    22.62000000
   H     61.62000000    45.04000000    22.28000000
   N     66.89000000    47.55000000    18.88000000
   C     68.22000000    48.12000000    18.88000000
   C     68.21000000    49.22000000    19.93000000
   O     67.17000000    49.68000000    20.39000000
   C     68.62000000    48.53000000    17.47000000
   C     67.61000000    48.29000000    16.36000000
   O     66.75000000    49.18000000    16.13000000
   O     67.34000000    47.16000000    15.90000000
   H     66.07000000    48.09000000    18.62000000
   H     68.98000000    47.36000000    19.07000000
   H     69.57000000    48.06000000    17.22000000
   H     68.73000000    49.62000000    17.47000000
   N     69.39000000    49.78000000    20.21000000
   C     69.53000000    50.65000000    21.36000000
   C     68.77000000    51.96000000    21.29000000
   O     68.08000000    52.26000000    22.26000000
   C     70.98000000    50.79000000    21.81000000
   C     71.18000000    51.67000000    23.02000000
   C     72.00000000    52.80000000    22.93000000
   C     70.52000000    51.39000000    24.23000000
   C     72.11000000    53.67000000    24.02000000
   C     70.69000000    52.26000000    25.31000000
   C     71.48000000    53.41000000    25.24000000
   H     70.12000000    49.67000000    19.52000000
   H     69.07000000    50.20000000    22.24000000
   H     71.55000000    51.13000000    20.94000000
   H     71.46000000    49.85000000    22.05000000
   H     72.66000000    52.96000000    22.09000000
   H     69.73000000    50.66000000    24.32000000
   H     72.65000000    54.60000000    23.92000000
   H     70.10000000    52.19000000    26.22000000
   H     71.56000000    54.15000000    26.03000000
   N     68.85000000    52.63000000    20.13000000
   C     68.16000000    53.88000000    19.90000000
   C     66.65000000    53.64000000    19.88000000
   O     65.96000000    54.62000000    20.15000000
   C     68.65000000    54.35000000    18.53000000
   C     69.98000000    53.67000000    18.22000000
   C     69.80000000    52.41000000    19.06000000
   H     68.52000000    54.60000000    20.63000000
   H     67.93000000    54.21000000    17.72000000
   H     68.80000000    55.43000000    18.49000000
   H     69.99000000    53.60000000    17.13000000
   H     70.80000000    54.31000000    18.53000000
   H     69.49000000    51.57000000    18.45000000
   H     70.77000000    52.26000000    19.53000000
   N     66.13000000    52.44000000    19.61000000
   C     64.74000000    52.06000000    19.49000000
   C     64.14000000    51.92000000    20.88000000
   O     63.02000000    52.35000000    21.13000000
   C     64.66000000    50.80000000    18.64000000
   C     63.27000000    50.48000000    18.08000000
   C     63.36000000    49.34000000    17.08000000
   O     63.46000000    49.63000000    15.86000000
   O     63.36000000    48.15000000    17.46000000
   H     66.76000000    51.66000000    19.48000000
   H     64.18000000    52.85000000    18.98000000
   H     64.99000000    49.92000000    19.20000000
   H     65.41000000    50.91000000    17.85000000
   H     62.91000000    51.37000000    17.56000000
   H     62.57000000    50.15000000    18.84000000
   N     64.89000000    51.27000000    21.77000000
   C     64.60000000    51.28000000    23.19000000
   H     63.55800000    51.00400000    23.34900000
   H     65.24700000    50.56500000    23.69900000
   H     64.77600000    52.27800000    23.59000000
   H     65.77000000    50.81000000    21.59000000
  Ca     64.73000000    47.43000000    15.34000000

Ca 1.00



