%chk=loop2.cluster154.chk
%nprocshared=20
%mem=10GB
%nosave
#b3lyp/svp scf=(tight,noincore,xqc) Test 
#IOP(5/87=12) Density=Current Pop=(MK,readradii) iop(6/33=2) iop(6/42=6)

loop2.cluster154 

   -2  1 
   C     59.35000000    51.71000000    16.82000000
   C     60.36000000    51.72000000    15.68000000
   O     61.38000000    52.39000000    15.81000000
   H     58.40800000    51.29200000    16.46600000
   H     59.73200000    51.10100000    17.63900000
   H     59.18600000    52.72900000    17.17000000
   N     60.10000000    50.98000000    14.60000000
   C     60.98000000    50.73000000    13.48000000
   C     61.05000000    51.93000000    12.55000000
   O     60.17000000    52.78000000    12.47000000
   C     60.54000000    49.50000000    12.69000000
   C     61.67000000    48.69000000    12.07000000
   O     62.82000000    49.15000000    11.88000000
   O     61.30000000    47.54000000    11.73000000
   H     59.26000000    50.42000000    14.67000000
   H     62.00000000    50.75000000    13.88000000
   H     59.85000000    49.92000000    11.96000000
   H     59.97000000    48.87000000    13.38000000
   N     62.11000000    51.94000000    11.74000000
   C     62.06000000    52.65000000    10.47000000
   C     62.78000000    51.94000000     9.33000000
   O     62.96000000    52.50000000     8.25000000
   C     62.46000000    54.08000000    10.79000000
   H     62.85000000    51.29000000    11.98000000
   H     61.02000000    52.68000000    10.16000000
   H     63.50000000    54.13000000    11.13000000
   H     62.46000000    54.69000000     9.88000000
   H     61.83000000    54.47000000    11.59000000
   N     63.27000000    50.72000000     9.55000000
   C     64.16000000    50.03000000     8.64000000
   C     63.60000000    48.68000000     8.19000000
   O     63.95000000    48.28000000     7.09000000
   C     65.59000000    49.95000000     9.16000000
   C     65.74000000    49.31000000    10.53000000
   O     65.05000000    48.28000000    10.70000000
   O     66.25000000    49.84000000    11.54000000
   H     63.12000000    50.19000000    10.40000000
   H     64.26000000    50.57000000     7.70000000
   H     66.00000000    50.96000000     9.07000000
   H     66.05000000    49.25000000     8.45000000
   N     62.73000000    47.98000000     8.92000000
   C     62.28000000    46.62000000     8.66000000
   C     63.26000000    45.50000000     8.98000000
   O     62.94000000    44.33000000     8.77000000
   H     62.64000000    48.32000000     9.86000000
   H     61.85000000    46.52000000     7.67000000
   H     61.47000000    46.55000000     9.39000000
   N     64.44000000    45.78000000     9.54000000
   C     65.49000000    44.82000000     9.81000000
   C     65.28000000    43.71000000    10.83000000
   O     66.14000000    42.84000000    10.89000000
   C     66.72000000    45.71000000     9.92000000
   C     66.89000000    46.11000000    11.38000000
   N     68.02000000    46.76000000    11.68000000
   O     66.09000000    46.07000000    12.31000000
   H     64.65000000    46.76000000     9.68000000
   H     65.59000000    44.27000000     8.87000000
   H     66.56000000    46.63000000     9.35000000
   H     67.51000000    45.02000000     9.60000000
   H     68.78000000    46.99000000    11.05000000
   H     68.06000000    47.04000000    12.65000000
   N     64.17000000    43.68000000    11.57000000
   C     63.72000000    42.64000000    12.48000000
   C     64.01000000    42.78000000    13.96000000
   O     63.46000000    41.95000000    14.69000000
   H     63.55000000    44.45000000    11.36000000
   H     64.20000000    41.73000000    12.13000000
   H     62.64000000    42.49000000    12.41000000
   N     64.71000000    43.83000000    14.40000000
   C     65.01000000    44.16000000    15.77000000
   C     64.84000000    45.64000000    16.07000000
   O     64.92000000    46.47000000    15.17000000
   C     66.47000000    43.80000000    16.05000000
   C     66.66000000    42.30000000    16.19000000
   O     67.33000000    44.29000000    15.04000000
   H     64.97000000    44.44000000    13.63000000
   H     64.28000000    43.66000000    16.42000000
   H     66.70000000    44.21000000    17.03000000
   H     66.74000000    44.71000000    14.40000000
   H     67.54000000    42.12000000    16.80000000
   H     65.77000000    41.93000000    16.69000000
   H     66.78000000    41.79000000    15.23000000
   N     64.72000000    45.98000000    17.36000000
   C     65.12000000    47.28000000    17.86000000
   C     66.64000000    47.43000000    17.86000000
   O     67.30000000    46.75000000    18.65000000
   C     64.48000000    47.61000000    19.20000000
   C     63.08000000    47.08000000    19.46000000
   C     64.53000000    49.14000000    19.30000000
   C     62.70000000    47.17000000    20.94000000
   H     64.79000000    45.26000000    18.06000000
   H     64.76000000    47.97000000    17.09000000
   H     65.11000000    47.22000000    20.00000000
   H     63.04000000    46.01000000    19.24000000
   H     62.38000000    47.57000000    18.78000000
   H     64.06000000    49.48000000    20.22000000
   H     65.53000000    49.57000000    19.29000000
   H     63.98000000    49.52000000    18.44000000
   H     63.48000000    46.75000000    21.58000000
   H     62.44000000    48.19000000    21.23000000
   H     61.77000000    46.62000000    21.10000000
   N     67.22000000    48.32000000    17.06000000
   C     68.64000000    48.59000000    17.10000000
   C     68.96000000    49.61000000    18.18000000
   O     68.06000000    50.28000000    18.68000000
   C     69.10000000    49.14000000    15.75000000
   C     68.62000000    48.36000000    14.53000000
   O     67.41000000    48.29000000    14.20000000
   O     69.55000000    47.84000000    13.88000000
   H     66.66000000    48.94000000    16.49000000
   H     69.21000000    47.69000000    17.35000000
   H     70.17000000    49.36000000    15.79000000
   H     68.72000000    50.16000000    15.74000000
   N     70.23000000    49.78000000    18.57000000
   C     70.61000000    50.81000000    19.51000000
   C     70.19000000    52.20000000    19.04000000
   O     69.46000000    52.85000000    19.78000000
   C     72.05000000    50.64000000    19.99000000
   C     72.43000000    51.58000000    21.11000000
   C     73.47000000    52.51000000    21.10000000
   C     71.61000000    51.49000000    22.24000000
   C     73.76000000    53.19000000    22.29000000
   C     71.96000000    52.13000000    23.44000000
   C     73.04000000    53.03000000    23.48000000
   H     70.92000000    49.26000000    18.05000000
   H     69.98000000    50.63000000    20.38000000
   H     72.68000000    50.74000000    19.10000000
   H     72.19000000    49.63000000    20.38000000
   H     74.07000000    52.68000000    20.21000000
   H     70.73000000    50.88000000    22.16000000
   H     74.60000000    53.86000000    22.19000000
   H     71.35000000    52.06000000    24.33000000
   H     73.20000000    53.55000000    24.41000000
   N     70.68000000    52.84000000    17.98000000
   C     70.23000000    54.14000000    17.53000000
   C     68.72000000    54.29000000    17.37000000
   O     68.22000000    55.39000000    17.61000000
   C     70.93000000    54.37000000    16.19000000
   C     71.19000000    52.95000000    15.70000000
   C     71.59000000    52.27000000    17.01000000
   H     70.48000000    54.95000000    18.21000000
   H     70.35000000    54.96000000    15.48000000
   H     71.89000000    54.86000000    16.35000000
   H     70.32000000    52.47000000    15.25000000
   H     71.88000000    52.95000000    14.86000000
   H     71.51000000    51.20000000    16.84000000
   H     72.62000000    52.49000000    17.31000000
   N     68.01000000    53.20000000    17.09000000
   C     66.57000000    53.13000000    17.19000000
   C     65.97000000    53.27000000    18.58000000
   O     65.11000000    54.12000000    18.75000000
   C     66.11000000    51.82000000    16.55000000
   C     64.81000000    51.97000000    15.76000000
   C     64.46000000    50.73000000    14.96000000
   O     64.42000000    50.84000000    13.71000000
   O     64.62000000    49.57000000    15.41000000
   H     68.52000000    52.35000000    16.89000000
   H     66.17000000    54.02000000    16.70000000
   H     66.07000000    51.01000000    17.27000000
   H     66.88000000    51.45000000    15.88000000
   H     65.00000000    52.83000000    15.11000000
   H     64.04000000    52.19000000    16.51000000
   N     66.61000000    52.57000000    19.53000000
   C     66.21000000    52.70000000    20.91000000
   H     65.17700000    52.36900000    21.02100000
   H     66.85700000    52.08600000    21.53600000
   H     66.29100000    53.74300000    21.21600000
   H     67.31000000    51.87000000    19.32000000
  Ca     64.90000000    48.30000000    13.27000000
   O     62.23000000    48.20000000    15.15000000
   H     62.78000000    48.52000000    15.86000000
   H     61.34000000    48.19000000    15.52000000
   O     63.11000000    46.20000000    13.00000000
   H     62.46000000    46.54000000    12.39000000
   H     62.67000000    46.22000000    13.85000000

Ca 1.00



