%chk=loop1.cluster66.chk
%nprocshared=20
%mem=10GB
%nosave
#b3lyp/svp scf=(tight,noincore,xqc) Test 
#IOP(5/87=12) Density=Current Pop=(MK,readradii) iop(6/33=2) iop(6/42=6)

loop1.cluster66 

   0  1 
   C     38.23000000   -19.48000000    26.38000000
   C     39.05000000   -20.60000000    27.00000000
   O     40.06000000   -21.05000000    26.45000000
   H     37.31000000   -19.34600000    26.94900000
   H     38.80600000   -18.55500000    26.39800000
   H     37.98500000   -19.73600000    25.34900000
   N     38.75000000   -20.91000000    28.26000000
   C     39.41000000   -21.82000000    29.18000000
   C     38.56000000   -23.04000000    29.50000000
   O     38.83000000   -23.80000000    30.43000000
   C     40.11000000   -21.13000000    30.35000000
   C     39.12000000   -20.50000000    31.32000000
   O     38.08000000   -20.01000000    30.84000000
   O     39.47000000   -20.41000000    32.52000000
   H     38.03000000   -20.33000000    28.67000000
   H     40.18000000   -22.32000000    28.60000000
   H     40.72000000   -20.38000000    29.84000000
   H     40.68000000   -21.92000000    30.83000000
   N     37.38000000   -23.21000000    28.91000000
   C     36.34000000   -24.07000000    29.45000000
   C     35.79000000   -25.07000000    28.44000000
   O     34.73000000   -24.85000000    27.86000000
   C     35.26000000   -23.29000000    30.20000000
   C     35.78000000   -22.58000000    31.44000000
   C     34.72000000   -21.76000000    32.16000000
   C     35.32000000   -21.08000000    33.39000000
   N     35.87000000   -19.80000000    32.93000000
   H     37.11000000   -22.56000000    28.18000000
   H     36.87000000   -24.68000000    30.17000000
   H     34.42000000   -23.92000000    30.51000000
   H     34.86000000   -22.49000000    29.57000000
   H     36.52000000   -21.81000000    31.20000000
   H     36.18000000   -23.30000000    32.15000000
   H     33.92000000   -22.35000000    32.60000000
   H     34.28000000   -21.00000000    31.51000000
   H     36.08000000   -21.68000000    33.89000000
   H     34.53000000   -20.76000000    34.08000000
   H     36.46000000   -20.03000000    32.15000000
   H     35.20000000   -19.16000000    32.53000000
   H     36.40000000   -19.33000000    33.65000000
   N     36.48000000   -26.18000000    28.14000000
   C     37.73000000   -26.78000000    28.58000000
   C     37.88000000   -27.03000000    30.07000000
   O     36.89000000   -26.95000000    30.80000000
   C     38.84000000   -26.08000000    27.80000000
   C     39.78000000   -27.00000000    27.03000000
   O     40.83000000   -26.44000000    26.65000000
   O     39.44000000   -28.18000000    26.79000000
   H     35.97000000   -26.74000000    27.48000000
   H     37.65000000   -27.78000000    28.16000000
   H     39.43000000   -25.50000000    28.50000000
   H     38.35000000   -25.46000000    27.05000000
   N     39.03000000   -27.34000000    30.66000000
   C     40.27000000   -27.72000000    30.02000000
   C     41.13000000   -28.61000000    30.91000000
   O     40.66000000   -29.46000000    31.66000000
   H     39.03000000   -27.56000000    31.65000000
   H     40.86000000   -26.81000000    29.88000000
   H     40.02000000   -28.22000000    29.08000000
   N     42.46000000   -28.47000000    30.83000000
   C     43.29000000   -27.88000000    29.80000000
   C     43.17000000   -26.37000000    29.63000000
   O     43.24000000   -25.95000000    28.47000000
   C     44.74000000   -28.32000000    29.93000000
   C     45.26000000   -28.13000000    31.35000000
   O     46.18000000   -27.31000000    31.54000000
   O     44.71000000   -28.76000000    32.29000000
   H     43.12000000   -28.88000000    31.47000000
   H     42.88000000   -28.25000000    28.86000000
   H     45.37000000   -27.75000000    29.24000000
   H     44.89000000   -29.36000000    29.65000000
   N     42.81000000   -25.70000000    30.72000000
   C     42.31000000   -24.34000000    30.72000000
   C     43.18000000   -23.23000000    30.16000000
   O     42.61000000   -22.38000000    29.48000000
   H     42.70000000   -26.16000000    31.62000000
   H     42.06000000   -23.96000000    31.72000000
   H     41.38000000   -24.30000000    30.15000000
   N     44.49000000   -23.27000000    30.42000000
   C     45.45000000   -22.27000000    30.01000000
   C     45.33000000   -21.68000000    28.61000000
   O     45.33000000   -22.36000000    27.59000000
   C     46.88000000   -22.77000000    30.25000000
   C     47.35000000   -24.02000000    29.51000000
   O     47.19000000   -23.01000000    31.61000000
   H     44.85000000   -24.08000000    30.91000000
   H     45.39000000   -21.46000000    30.73000000
   H     47.60000000   -22.01000000    29.96000000
   H     46.66000000   -23.77000000    31.85000000
   H     48.38000000   -24.20000000    29.81000000
   H     46.70000000   -24.82000000    29.86000000
   H     47.29000000   -23.84000000    28.43000000
   N     45.30000000   -20.35000000    28.51000000
   C     44.98000000   -19.56000000    27.34000000
   C     46.19000000   -19.32000000    26.44000000
   O     46.44000000   -18.26000000    25.88000000
   C     44.02000000   -18.42000000    27.67000000
   C     43.40000000   -17.74000000    26.45000000
   C     44.71000000   -17.40000000    28.57000000
   C     41.99000000   -17.19000000    26.64000000
   H     45.32000000   -19.87000000    29.41000000
   H     44.39000000   -20.25000000    26.74000000
   H     43.18000000   -18.92000000    28.16000000
   H     43.34000000   -18.45000000    25.63000000
   H     44.05000000   -17.00000000    25.99000000
   H     45.56000000   -16.93000000    28.07000000
   H     44.12000000   -16.50000000    28.75000000
   H     44.97000000   -17.75000000    29.56000000
   H     41.68000000   -16.77000000    25.69000000
   H     41.30000000   -17.92000000    27.07000000
   H     41.98000000   -16.37000000    27.36000000
   N     47.12000000   -20.28000000    26.39000000
   C     48.36000000   -20.42000000    25.65000000
   C     48.34000000   -20.28000000    24.14000000
   O     49.33000000   -19.91000000    23.51000000
   C     49.01000000   -21.74000000    26.06000000
   C     48.31000000   -23.04000000    25.69000000
   O     49.10000000   -21.80000000    27.46000000
   H     46.95000000   -21.11000000    26.94000000
   H     49.02000000   -19.66000000    26.07000000
   H     50.03000000   -21.79000000    25.67000000
   H     49.96000000   -22.15000000    27.69000000
   H     47.39000000   -23.06000000    26.29000000
   H     47.95000000   -22.88000000    24.67000000
   H     48.94000000   -23.91000000    25.87000000
   N     47.22000000   -20.60000000    23.49000000
   C     47.09000000   -20.76000000    22.06000000
   C     47.91000000   -21.98000000    21.66000000
   O     48.61000000   -22.73000000    22.34000000
   C     47.33000000   -19.46000000    21.30000000
   C     46.39000000   -18.33000000    21.72000000
   O     46.99000000   -19.54000000    19.94000000
   H     46.44000000   -20.80000000    24.11000000
   H     46.08000000   -21.11000000    21.85000000
   H     48.35000000   -19.06000000    21.39000000
   H     47.12000000   -18.67000000    19.56000000
   H     46.53000000   -18.04000000    22.76000000
   H     46.61000000   -17.42000000    21.16000000
   H     45.35000000   -18.65000000    21.67000000
   N     48.00000000   -22.17000000    20.34000000
   C     48.81000000   -23.03000000    19.49000000
   C     48.24000000   -24.42000000    19.27000000
   O     49.04000000   -25.30000000    18.97000000
   C     49.29000000   -22.41000000    18.19000000
   C     50.08000000   -21.12000000    18.39000000
   C     50.63000000   -20.67000000    17.04000000
   C     51.65000000   -19.55000000    17.19000000
   N     52.47000000   -19.31000000    15.99000000
   H     47.49000000   -21.53000000    19.74000000
   H     49.70000000   -23.19000000    20.10000000
   H     48.44000000   -22.31000000    17.51000000
   H     49.95000000   -23.17000000    17.78000000
   H     50.88000000   -21.23000000    19.12000000
   H     49.35000000   -20.39000000    18.73000000
   H     49.81000000   -20.23000000    16.47000000
   H     51.05000000   -21.51000000    16.49000000
   H     52.34000000   -19.77000000    18.01000000
   H     51.21000000   -18.62000000    17.58000000
   H     53.03000000   -20.08000000    15.67000000
   H     51.76000000   -19.15000000    15.29000000
   H     53.01000000   -18.46000000    16.09000000
   N     46.96000000   -24.81000000    19.29000000
   C     45.72000000   -24.15000000    19.61000000
   C     45.48000000   -22.79000000    18.97000000
   O     44.95000000   -21.87000000    19.60000000
   C     45.51000000   -24.25000000    21.12000000
   C     44.05000000   -24.23000000    21.56000000
   C     43.97000000   -24.67000000    23.01000000
   O     43.64000000   -23.88000000    23.91000000
   O     44.22000000   -25.86000000    23.30000000
   H     47.06000000   -25.81000000    19.43000000
   H     45.02000000   -24.85000000    19.15000000
   H     46.09000000   -23.49000000    21.64000000
   H     45.98000000   -25.19000000    21.43000000
   H     43.46000000   -24.96000000    21.02000000
   H     43.70000000   -23.20000000    21.60000000
   N     45.62000000   -22.65000000    17.65000000
   C     45.22000000   -21.55000000    16.80000000
   H     44.32900000   -21.07800000    17.21300000
   H     46.02700000   -20.81900000    16.74700000
   H     45.00200000   -21.92400000    15.80000000
   H     46.04000000   -23.42000000    17.14000000
  Ca     43.09000000   -25.62500000    25.75000000
   O     41.06000000   -26.30500000    23.85000000
   H     40.58000000   -25.61500000    23.40000000
   H     40.41000000   -26.99500000    23.99000000
   O     45.53000000   -25.03500000    26.40000000
   H     46.40000000   -25.42500000    26.36000000
   H     45.67000000   -24.20500000    26.86000000
   O     43.95000000   -28.11500000    25.82000000
   H     43.33000000   -28.77500000    26.14000000
   H     44.77000000   -28.59500000    25.70000000
   O     42.08000000   -23.26500000    26.90000000
   H     41.64000000   -22.42500000    26.74000000
   H     42.39000000   -23.20500000    27.80000000

Ca 1.00



