%chk=loop3.cluster151.chk
%nprocshared=20
%mem=10GB
%nosave
#b3lyp/svp scf=(tight,noincore,xqc) Test 
#IOP(5/87=12) Density=Current Pop=(MK,readradii) iop(6/33=2) iop(6/42=6)

loop3.cluster151 

   0  1 
   C     52.76000000    55.48000000    41.28000000
   C     53.43000000    55.58000000    42.65000000
   O     52.70000000    55.67000000    43.63000000
   H     51.86500000    56.10100000    41.26800000
   H     53.45100000    55.82500000    40.51100000
   H     52.48500000    54.44400000    41.08400000
   N     54.76000000    55.58000000    42.72000000
   C     55.56000000    55.76000000    43.92000000
   C     55.59000000    57.15000000    44.54000000
   O     56.64000000    57.78000000    44.66000000
   C     55.35000000    54.71000000    45.01000000
   C     55.22000000    53.23000000    44.67000000
   O     54.42000000    52.55000000    45.36000000
   O     55.87000000    52.71000000    43.74000000
   H     55.20000000    55.47000000    41.82000000
   H     56.61000000    55.63000000    43.63000000
   H     54.42000000    54.97000000    45.52000000
   H     56.06000000    54.93000000    45.81000000
   N     54.42000000    57.62000000    44.97000000
   C     54.29000000    58.86000000    45.70000000
   C     54.88000000    58.90000000    47.10000000
   O     55.06000000    59.98000000    47.67000000
   C     52.80000000    59.17000000    45.82000000
   C     51.81000000    58.56000000    46.81000000
   C     51.70000000    57.04000000    46.78000000
   C     50.96000000    56.45000000    47.98000000
   N     51.40000000    55.05000000    48.14000000
   H     53.58000000    57.14000000    44.68000000
   H     54.76000000    59.74000000    45.25000000
   H     52.35000000    58.98000000    44.84000000
   H     52.71000000    60.22000000    46.09000000
   H     50.78000000    58.91000000    46.70000000
   H     52.11000000    58.79000000    47.83000000
   H     52.67000000    56.56000000    46.84000000
   H     51.25000000    56.79000000    45.82000000
   H     49.88000000    56.47000000    47.86000000
   H     51.35000000    56.93000000    48.88000000
   H     51.57000000    54.48000000    47.33000000
   H     52.24000000    55.00000000    48.70000000
   H     50.76000000    54.62000000    48.80000000
   N     55.23000000    57.79000000    47.76000000
   C     55.94000000    57.80000000    49.03000000
   C     57.05000000    56.76000000    49.03000000
   O     57.27000000    55.97000000    48.12000000
   C     54.86000000    57.58000000    50.08000000
   C     54.05000000    56.31000000    49.90000000
   O     52.89000000    56.15000000    50.34000000
   O     54.56000000    55.36000000    49.26000000
   H     55.15000000    56.96000000    47.20000000
   H     56.41000000    58.78000000    49.06000000
   H     54.18000000    58.43000000    50.16000000
   H     55.40000000    57.50000000    51.03000000
   N     57.61000000    56.59000000    50.24000000
   C     58.67000000    55.64000000    50.49000000
   C     58.24000000    54.25000000    50.92000000
   O     59.07000000    53.46000000    51.39000000
   H     57.22000000    56.99000000    51.08000000
   H     59.44000000    55.99000000    51.18000000
   H     59.14000000    55.54000000    49.51000000
   N     56.96000000    53.89000000    50.92000000
   C     56.47000000    52.61000000    51.37000000
   C     56.99000000    51.44000000    50.55000000
   O     57.60000000    50.49000000    51.02000000
   C     54.95000000    52.68000000    51.57000000
   C     54.26000000    51.36000000    51.90000000
   N     54.48000000    50.66000000    53.01000000
   O     53.46000000    50.95000000    51.06000000
   H     56.35000000    54.44000000    50.32000000
   H     56.93000000    52.52000000    52.36000000
   H     54.54000000    52.97000000    50.60000000
   H     54.79000000    53.47000000    52.30000000
   H     55.00000000    51.07000000    53.78000000
   H     54.32000000    49.67000000    53.10000000
   N     56.56000000    51.51000000    49.28000000
   C     56.60000000    50.43000000    48.32000000
   C     55.64000000    49.27000000    48.56000000
   O     55.20000000    48.74000000    47.54000000
   H     56.18000000    52.38000000    48.93000000
   H     57.62000000    50.05000000    48.33000000
   H     56.47000000    50.76000000    47.29000000
   N     55.42000000    48.84000000    49.80000000
   C     54.79000000    47.58000000    50.14000000
   C     53.28000000    47.40000000    49.96000000
   O     52.80000000    46.27000000    49.96000000
   C     55.63000000    46.41000000    49.62000000
   C     57.12000000    46.65000000    49.57000000
   C     57.90000000    46.85000000    50.71000000
   C     57.75000000    46.59000000    48.32000000
   C     59.30000000    46.94000000    50.68000000
   C     59.14000000    46.69000000    48.22000000
   C     59.88000000    46.88000000    49.40000000
   O     61.22000000    47.15000000    49.44000000
   H     55.99000000    49.31000000    50.48000000
   H     54.87000000    47.48000000    51.22000000
   H     55.27000000    46.20000000    48.62000000
   H     55.46000000    45.58000000    50.30000000
   H     57.45000000    47.07000000    51.67000000
   H     57.16000000    46.43000000    47.43000000
   H     59.86000000    47.21000000    51.57000000
   H     59.65000000    46.77000000    47.27000000
   H     61.64000000    47.31000000    48.60000000
   N     52.59000000    48.53000000    49.81000000
   C     51.15000000    48.69000000    49.83000000
   C     50.37000000    48.18000000    51.04000000
   O     49.86000000    48.86000000    51.93000000
   C     50.61000000    48.25000000    48.47000000
   C     51.34000000    48.66000000    47.19000000
   C     49.13000000    48.58000000    48.30000000
   C     51.43000000    50.19000000    47.11000000
   H     53.16000000    49.36000000    49.83000000
   H     51.02000000    49.76000000    49.94000000
   H     50.64000000    47.17000000    48.57000000
   H     50.86000000    48.15000000    46.36000000
   H     52.36000000    48.30000000    47.31000000
   H     48.91000000    49.63000000    48.13000000
   H     48.72000000    47.97000000    47.50000000
   H     48.64000000    48.29000000    49.23000000
   H     51.65000000    50.56000000    48.11000000
   H     52.11000000    50.42000000    46.30000000
   H     50.48000000    50.66000000    46.89000000
   N     50.26000000    46.85000000    51.09000000
   C     49.61000000    46.13000000    52.17000000
   C     48.10000000    46.19000000    52.04000000
   O     47.38000000    46.42000000    53.01000000
   C     50.02000000    44.66000000    52.04000000
   O     51.42000000    44.50000000    52.14000000
   H     50.76000000    46.34000000    50.38000000
   H     49.87000000    46.52000000    53.15000000
   H     49.77000000    44.21000000    51.08000000
   H     49.53000000    44.08000000    52.82000000
   H     51.61000000    43.56000000    52.12000000
   N     47.58000000    46.11000000    50.81000000
   C     46.20000000    46.17000000    50.38000000
   C     45.62000000    47.57000000    50.33000000
   O     44.89000000    47.87000000    49.39000000
   C     45.32000000    45.10000000    51.03000000
   H     48.24000000    45.93000000    50.06000000
   H     46.24000000    45.84000000    49.34000000
   H     44.41000000    45.01000000    50.45000000
   H     45.79000000    44.12000000    51.04000000
   H     45.04000000    45.34000000    52.05000000
   N     45.74000000    48.42000000    51.35000000
   C     45.28000000    49.79000000    51.39000000
   C     45.79000000    50.75000000    50.32000000
   O     46.64000000    50.43000000    49.49000000
   C     45.50000000    50.34000000    52.80000000
   H     46.32000000    48.08000000    52.11000000
   H     44.20000000    49.66000000    51.41000000
   H     46.55000000    50.25000000    53.08000000
   H     45.23000000    51.40000000    52.73000000
   H     44.86000000    49.78000000    53.48000000
   N     45.09000000    51.89000000    50.30000000
   C     45.32000000    52.99000000    49.39000000
   C     45.17000000    52.66000000    47.91000000
   O     45.34000000    53.54000000    47.07000000
   C     46.57000000    53.77000000    49.80000000
   C     47.91000000    53.07000000    49.96000000
   C     49.01000000    53.88000000    50.64000000
   O     49.50000000    54.73000000    49.87000000
   O     49.24000000    53.91000000    51.86000000
   H     44.25000000    52.07000000    50.84000000
   H     44.59000000    53.75000000    49.67000000
   H     46.24000000    54.21000000    50.74000000
   H     46.71000000    54.53000000    49.03000000
   H     48.24000000    52.85000000    48.94000000
   H     47.75000000    52.22000000    50.62000000
   N     44.78000000    51.45000000    47.51000000
   C     44.61000000    50.99000000    46.15000000
   H     43.93500000    51.66300000    45.62100000
   H     45.57700000    50.97700000    45.64700000
   H     44.18900000    49.98500000    46.15600000
   H     44.73000000    50.76000000    48.25000000
  Ca     50.96000000    55.91000000    51.93000000
   O     50.05000000    55.96000000    54.65000000
   H     50.03000000    55.55000000    55.52000000
   H     49.38000000    56.64000000    54.69000000
   O     50.68000000    58.31000000    50.79000000
   H     50.19000000    58.69000000    50.07000000
   H     51.07000000    59.06000000    51.24000000
   O     52.43000000    57.42000000    53.57000000
   H     51.92000000    57.91000000    54.21000000
   H     53.31000000    57.81000000    53.61000000
   O     48.44000000    56.98000000    52.24000000
   H     48.40000000    57.93000000    52.12000000
   H     47.60000000    56.75000000    52.64000000
   O     51.75000000    53.74000000    53.32000000
   H     52.03000000    53.85000000    54.23000000
   H     51.54000000    52.81000000    53.24000000

Ca 1.00



