%chk=loop4.cluster117.chk
%nprocshared=20
%mem=10GB
%nosave
#b3lyp/svp scf=(tight,noincore,xqc) Test 
#IOP(5/87=12) Density=Current Pop=(MK,readradii) iop(6/33=2) iop(6/42=6)

loop4.cluster117 

   -3  1 
   C     50.49000000    36.89000000    28.85000000
   C     51.50000000    38.03000000    28.87000000
   O     52.69000000    37.76000000    28.71000000
   H     49.58400000    37.21700000    28.34100000
   H     50.91500000    36.03700000    28.32100000
   H     50.24700000    36.60100000    29.87300000
   N     51.00000000    39.27000000    28.96000000
   C     51.62000000    40.52000000    28.57000000
   C     52.67000000    40.59000000    27.47000000
   O     53.88000000    40.63000000    27.68000000
   C     52.06000000    41.34000000    29.77000000
   C     52.93000000    40.66000000    30.82000000
   O     52.36000000    39.96000000    31.68000000
   O     54.18000000    40.78000000    30.86000000
   H     50.00000000    39.18000000    29.09000000
   H     50.70000000    41.03000000    28.28000000
   H     51.17000000    41.60000000    30.34000000
   H     52.48000000    42.27000000    29.41000000
   N     52.14000000    40.51000000    26.25000000
   C     52.72000000    40.47000000    24.92000000
   C     53.88000000    41.44000000    24.74000000
   O     54.79000000    41.13000000    23.97000000
   C     53.05000000    39.05000000    24.46000000
   C     51.81000000    38.31000000    23.97000000
   C     53.98000000    38.23000000    25.35000000
   C     50.80000000    37.92000000    25.05000000
   H     51.14000000    40.60000000    26.20000000
   H     51.97000000    40.86000000    24.23000000
   H     53.59000000    39.18000000    23.51000000
   H     52.10000000    37.36000000    23.54000000
   H     51.40000000    38.92000000    23.17000000
   H     54.54000000    38.98000000    25.91000000
   H     53.37000000    37.85000000    26.17000000
   H     54.62000000    37.43000000    24.99000000
   H     49.99000000    37.52000000    24.44000000
   H     51.24000000    37.21000000    25.75000000
   H     50.37000000    38.74000000    25.63000000
   N     53.89000000    42.57000000    25.44000000
   C     54.80000000    43.70000000    25.46000000
   C     56.22000000    43.22000000    25.71000000
   O     56.55000000    42.92000000    26.86000000
   C     54.34000000    44.82000000    26.39000000
   C     53.76000000    44.29000000    27.70000000
   O     52.54000000    44.43000000    27.92000000
   O     54.52000000    43.68000000    28.48000000
   H     53.16000000    42.58000000    26.14000000
   H     54.68000000    44.17000000    24.49000000
   H     53.50000000    45.35000000    25.95000000
   H     55.05000000    45.61000000    26.62000000
   N     57.10000000    43.04000000    24.72000000
   C     56.85000000    43.57000000    23.39000000
   C     58.07000000    43.35000000    22.50000000
   O     59.20000000    43.25000000    22.98000000
   H     57.97000000    42.62000000    25.02000000
   H     56.67000000    44.64000000    23.43000000
   H     56.03000000    43.04000000    22.91000000
   N     57.95000000    43.42000000    21.18000000
   C     56.76000000    43.55000000    20.36000000
   C     55.88000000    42.32000000    20.19000000
   O     54.68000000    42.54000000    20.16000000
   C     56.95000000    44.36000000    19.08000000
   C     58.05000000    43.85000000    18.15000000
   O     59.21000000    43.69000000    18.58000000
   O     57.75000000    43.53000000    16.98000000
   H     58.83000000    43.29000000    20.70000000
   H     56.09000000    44.11000000    21.01000000
   H     57.06000000    45.36000000    19.50000000
   H     56.03000000    44.34000000    18.50000000
   N     56.29000000    41.06000000    20.05000000
   C     57.64000000    40.53000000    20.00000000
   C     57.65000000    39.08000000    19.53000000
   O     56.60000000    38.50000000    19.26000000
   H     55.53000000    40.39000000    20.02000000
   H     58.06000000    40.60000000    21.00000000
   H     58.28000000    41.06000000    19.29000000
   N     58.77000000    38.36000000    19.46000000
   C     58.95000000    37.05000000    18.86000000
   C     58.67000000    35.84000000    19.73000000
   O     58.54000000    34.79000000    19.11000000
   C     60.26000000    36.99000000    18.07000000
   C     60.52000000    38.07000000    17.02000000
   C     61.80000000    37.80000000    16.25000000
   N     62.99000000    38.16000000    16.74000000
   O     61.83000000    37.24000000    15.15000000
   H     59.61000000    38.84000000    19.76000000
   H     58.14000000    37.07000000    18.13000000
   H     60.20000000    36.14000000    17.39000000
   H     61.04000000    36.82000000    18.80000000
   H     60.62000000    39.04000000    17.50000000
   H     59.68000000    38.18000000    16.32000000
   H     63.12000000    38.59000000    17.64000000
   H     63.73000000    37.82000000    16.15000000
   N     58.48000000    35.87000000    21.05000000
   C     57.99000000    34.72000000    21.79000000
   C     58.75000000    34.27000000    23.03000000
   O     58.38000000    33.33000000    23.73000000
   C     56.50000000    34.78000000    22.10000000
   C     55.70000000    35.16000000    20.85000000
   C     56.14000000    35.81000000    23.17000000
   H     58.67000000    36.73000000    21.54000000
   H     58.23000000    33.87000000    21.15000000
   H     56.01000000    33.86000000    22.41000000
   H     54.63000000    35.29000000    21.03000000
   H     56.07000000    36.12000000    20.49000000
   H     55.84000000    34.44000000    20.04000000
   H     56.76000000    36.69000000    23.00000000
   H     55.06000000    35.96000000    23.14000000
   H     56.48000000    35.38000000    24.12000000
   N     59.96000000    34.78000000    23.27000000
   C     60.82000000    34.51000000    24.40000000
   C     61.47000000    35.76000000    24.98000000
   O     61.68000000    35.74000000    26.20000000
   C     61.86000000    33.45000000    24.05000000
   C     61.33000000    32.03000000    23.97000000
   N     61.09000000    31.48000000    22.78000000
   O     61.21000000    31.34000000    24.98000000
   H     60.35000000    35.41000000    22.59000000
   H     60.21000000    34.05000000    25.18000000
   H     62.62000000    33.40000000    24.83000000
   H     62.37000000    33.70000000    23.12000000
   H     61.36000000    32.11000000    22.04000000
   H     61.04000000    30.48000000    22.61000000
   N     61.82000000    36.76000000    24.16000000
   C     62.67000000    37.85000000    24.60000000
   C     62.05000000    38.69000000    25.71000000
   O     61.12000000    39.44000000    25.42000000
   C     63.23000000    38.70000000    23.47000000
   C     64.43000000    39.55000000    23.83000000
   C     65.70000000    38.96000000    23.94000000
   C     64.27000000    40.91000000    24.11000000
   C     66.81000000    39.72000000    24.33000000
   C     65.37000000    41.66000000    24.55000000
   C     66.62000000    41.05000000    24.77000000
   O     67.66000000    41.70000000    25.36000000
   H     61.64000000    36.58000000    23.19000000
   H     63.54000000    37.34000000    25.01000000
   H     62.49000000    39.36000000    23.01000000
   H     63.56000000    38.04000000    22.66000000
   H     65.80000000    37.98000000    23.50000000
   H     63.32000000    41.39000000    23.97000000
   H     67.82000000    39.35000000    24.38000000
   H     65.22000000    42.68000000    24.87000000
   H     67.48000000    42.52000000    25.82000000
   N     62.56000000    38.58000000    26.94000000
   C     62.10000000    39.08000000    28.22000000
   C     60.73000000    38.55000000    28.60000000
   O     60.14000000    39.08000000    29.54000000
   C     62.28000000    40.60000000    28.32000000
   C     63.73000000    41.07000000    28.30000000
   C     63.94000000    42.55000000    28.58000000
   O     65.06000000    43.08000000    28.69000000
   O     62.92000000    43.24000000    28.81000000
   H     63.36000000    37.96000000    26.98000000
   H     62.80000000    38.70000000    28.96000000
   H     61.91000000    40.85000000    29.31000000
   H     61.72000000    41.02000000    27.48000000
   H     64.22000000    40.84000000    27.35000000
   H     64.32000000    40.61000000    29.10000000
   N     60.26000000    37.46000000    28.01000000
   C     59.06000000    36.86000000    28.57000000
   C     59.34000000    35.50000000    29.18000000
   O     58.64000000    35.06000000    30.09000000
   C     58.04000000    36.59000000    27.48000000
   C     57.56000000    37.81000000    26.70000000
   C     57.02000000    38.97000000    27.52000000
   O     57.04000000    40.13000000    27.03000000
   O     56.64000000    38.77000000    28.69000000
   H     60.67000000    37.04000000    27.18000000
   H     58.68000000    37.36000000    29.46000000
   H     57.13000000    36.19000000    27.92000000
   H     58.48000000    35.87000000    26.79000000
   H     56.74000000    37.48000000    26.06000000
   H     58.41000000    38.17000000    26.11000000
   N     60.38000000    34.78000000    28.74000000
   C     60.66000000    33.44000000    29.21000000
   H     61.55900000    33.45200000    29.82600000
   H     59.81900000    33.07900000    29.80200000
   H     60.81400000    32.78000000    28.35700000
   H     61.02000000    35.14000000    28.05000000
  Ca     55.87000000    41.59000000    29.03000000
   O     56.46000000    42.75000000    31.51000000
   H     56.17000000    42.90000000    32.41000000
   H     57.33000000    42.35000000    31.61000000
   O     56.60000000    39.54000000    31.29000000
   H     56.77000000    39.14000000    30.44000000
   H     55.66000000    39.72000000    31.30000000
   O     57.73000000    43.97000000    28.93000000
   H     57.25000000    44.35000000    28.20000000
   H     58.62000000    44.32000000    28.83000000
   O     58.66000000    41.20000000    29.97000000
   H     59.25000000    41.92000000    29.75000000
   H     59.20000000    40.41000000    29.88000000

Ca 1.00



