%chk=loop1.cluster33.chk
%nprocshared=20
%mem=10GB
%nosave
#b3lyp/svp scf=(tight,noincore,xqc) Test 
#IOP(5/87=12) Density=Current Pop=(MK,readradii) iop(6/33=2) iop(6/42=6)

loop1.cluster33 

   0  1 
   C     37.29000000    86.67000000   121.60000000
   C     37.65000000    86.06000000   122.95000000
   O     37.80000000    84.87000000   123.22000000
   H     36.45500000    87.36000000   121.72500000
   H     38.15000000    87.20900000   121.20300000
   H     37.00600000    85.87800000   120.90700000
   N     37.52000000    86.93000000   123.95000000
   C     37.91000000    86.73000000   125.33000000
   C     36.88000000    85.96000000   126.15000000
   O     37.16000000    85.61000000   127.29000000
   C     38.40000000    88.06000000   125.89000000
   C     37.31000000    89.12000000   125.77000000
   O     36.69000000    89.51000000   126.79000000
   O     37.25000000    89.68000000   124.65000000
   H     37.30000000    87.90000000   123.78000000
   H     38.74000000    86.03000000   125.32000000
   H     39.28000000    88.46000000   125.38000000
   H     38.61000000    87.91000000   126.95000000
   N     35.71000000    85.57000000   125.64000000
   C     34.56000000    85.13000000   126.40000000
   C     33.89000000    83.88000000   125.84000000
   O     33.35000000    83.97000000   124.73000000
   C     33.48000000    86.20000000   126.39000000
   C     33.93000000    87.57000000   126.89000000
   C     32.73000000    88.52000000   126.82000000
   C     32.98000000    89.90000000   127.42000000
   N     34.03000000    90.56000000   126.63000000
   H     35.53000000    85.65000000   124.65000000
   H     34.92000000    84.96000000   127.41000000
   H     32.58000000    85.87000000   126.91000000
   H     33.15000000    86.34000000   125.36000000
   H     34.74000000    87.94000000   126.26000000
   H     34.29000000    87.51000000   127.92000000
   H     31.88000000    88.00000000   127.24000000
   H     32.57000000    88.66000000   125.75000000
   H     32.99000000    89.90000000   128.51000000
   H     32.09000000    90.44000000   127.10000000
   H     33.84000000    90.31000000   125.67000000
   H     34.03000000    91.56000000   126.70000000
   H     34.95000000    90.23000000   126.90000000
   N     33.86000000    82.69000000   126.44000000
   C     34.38000000    82.30000000   127.74000000
   C     33.90000000    82.96000000   129.02000000
   O     33.28000000    84.02000000   128.99000000
   C     35.90000000    82.17000000   127.65000000
   C     36.27000000    81.33000000   126.44000000
   O     36.84000000    81.92000000   125.50000000
   O     36.13000000    80.09000000   126.53000000
   H     33.46000000    81.92000000   125.93000000
   H     34.05000000    81.26000000   127.82000000
   H     36.36000000    81.67000000   128.50000000
   H     36.30000000    83.16000000   127.46000000
   N     34.05000000    82.45000000   130.25000000
   C     34.74000000    81.25000000   130.67000000
   C     36.14000000    81.54000000   131.19000000
   O     36.47000000    82.69000000   131.45000000
   H     33.65000000    83.00000000   131.00000000
   H     34.84000000    80.60000000   129.80000000
   H     34.14000000    80.71000000   131.40000000
   N     37.03000000    80.58000000   131.44000000
   C     37.05000000    79.27000000   130.81000000
   C     38.43000000    79.08000000   130.20000000
   O     39.31000000    78.72000000   130.98000000
   C     36.68000000    78.15000000   131.78000000
   C     36.61000000    76.74000000   131.20000000
   O     36.65000000    76.63000000   129.96000000
   O     36.50000000    75.70000000   131.88000000
   H     37.79000000    80.95000000   131.99000000
   H     36.34000000    79.40000000   130.00000000
   H     35.74000000    78.37000000   132.29000000
   H     37.32000000    78.19000000   132.66000000
   N     38.62000000    79.20000000   128.88000000
   C     39.95000000    79.03000000   128.32000000
   C     40.18000000    79.94000000   127.12000000
   O     39.18000000    80.36000000   126.55000000
   H     37.85000000    79.36000000   128.25000000
   H     40.10000000    77.99000000   128.02000000
   H     40.73000000    79.24000000   129.05000000
   N     41.42000000    80.13000000   126.67000000
   C     41.79000000    80.83000000   125.45000000
   C     41.19000000    80.06000000   124.28000000
   O     40.91000000    78.87000000   124.41000000
   C     43.32000000    80.83000000   125.41000000
   C     43.93000000    79.44000000   125.51000000
   O     43.80000000    81.65000000   126.44000000
   H     42.17000000    79.76000000   127.24000000
   H     41.45000000    81.86000000   125.43000000
   H     43.65000000    81.25000000   124.46000000
   H     43.14000000    81.83000000   127.11000000
   H     43.67000000    78.79000000   124.67000000
   H     45.01000000    79.60000000   125.48000000
   H     43.72000000    78.86000000   126.41000000
   N     41.17000000    80.71000000   123.12000000
   C     40.53000000    80.18000000   121.92000000
   C     41.48000000    79.62000000   120.88000000
   O     42.26000000    80.37000000   120.29000000
   C     39.59000000    81.21000000   121.30000000
   C     39.04000000    80.78000000   119.95000000
   C     40.25000000    82.59000000   121.28000000
   C     37.85000000    81.56000000   119.40000000
   H     41.43000000    81.67000000   123.23000000
   H     39.86000000    79.36000000   122.14000000
   H     38.79000000    81.28000000   122.04000000
   H     38.79000000    79.72000000   119.95000000
   H     39.82000000    80.99000000   119.22000000
   H     39.52000000    83.36000000   121.03000000
   H     40.67000000    82.81000000   122.26000000
   H     41.03000000    82.60000000   120.52000000
   H     37.78000000    81.23000000   118.37000000
   H     36.96000000    81.13000000   119.86000000
   H     37.94000000    82.63000000   119.59000000
   N     41.33000000    78.33000000   120.55000000
   C     41.89000000    77.74000000   119.35000000
   C     40.83000000    77.29000000   118.36000000
   O     41.24000000    76.93000000   117.25000000
   C     42.94000000    76.65000000   119.58000000
   C     42.35000000    75.45000000   120.31000000
   O     43.99000000    77.09000000   120.41000000
   H     40.77000000    77.74000000   121.14000000
   H     42.38000000    78.56000000   118.82000000
   H     43.28000000    76.34000000   118.60000000
   H     44.43000000    77.88000000   120.08000000
   H     41.93000000    75.73000000   121.27000000
   H     41.59000000    75.03000000   119.65000000
   H     43.13000000    74.71000000   120.48000000
   N     39.53000000    77.35000000   118.61000000
   C     38.44000000    76.96000000   117.73000000
   C     38.32000000    75.45000000   117.57000000
   O     39.27000000    74.70000000   117.74000000
   C     38.48000000    77.61000000   116.35000000
   C     38.63000000    79.13000000   116.34000000
   O     37.30000000    77.45000000   115.59000000
   H     39.32000000    77.44000000   119.59000000
   H     37.55000000    77.30000000   118.25000000
   H     39.30000000    77.11000000   115.84000000
   H     37.30000000    78.09000000   114.87000000
   H     38.81000000    79.45000000   115.31000000
   H     37.69000000    79.58000000   116.65000000
   H     39.44000000    79.29000000   117.04000000
   N     37.10000000    74.93000000   117.38000000
   C     36.72000000    73.53000000   117.28000000
   C     35.72000000    72.94000000   118.27000000
   O     35.80000000    71.72000000   118.40000000
   C     36.27000000    73.44000000   115.83000000
   C     37.29000000    73.51000000   114.69000000
   C     38.32000000    72.39000000   114.67000000
   C     38.91000000    72.23000000   113.27000000
   N     39.79000000    73.35000000   112.92000000
   H     36.35000000    75.59000000   117.29000000
   H     37.55000000    72.83000000   117.38000000
   H     35.45000000    74.13000000   115.64000000
   H     35.78000000    72.47000000   115.68000000
   H     37.83000000    74.46000000   114.61000000
   H     36.78000000    73.55000000   113.73000000
   H     37.68000000    71.52000000   114.77000000
   H     39.06000000    72.31000000   115.47000000
   H     38.06000000    72.14000000   112.60000000
   H     39.57000000    71.36000000   113.32000000
   H     40.31000000    73.02000000   112.12000000
   H     39.32000000    74.14000000   112.49000000
   H     40.36000000    73.68000000   113.69000000
   N     34.80000000    73.57000000   118.99000000
   C     34.50000000    74.99000000   119.08000000
   C     34.28000000    75.66000000   117.73000000
   O     34.85000000    76.72000000   117.47000000
   C     35.51000000    75.63000000   120.03000000
   C     35.22000000    77.07000000   120.43000000
   C     35.39000000    77.36000000   121.92000000
   O     36.53000000    77.29000000   122.44000000
   O     34.36000000    77.55000000   122.60000000
   H     34.42000000    72.99000000   119.72000000
   H     33.53000000    75.08000000   119.57000000
   H     36.56000000    75.62000000   119.72000000
   H     35.49000000    74.99000000   120.91000000
   H     34.21000000    77.36000000   120.14000000
   H     35.87000000    77.71000000   119.84000000
   N     33.46000000    75.06000000   116.87000000
   C     33.08000000    75.58000000   115.57000000
   H     32.23100000    76.25500000   115.68300000
   H     33.92000000    76.12300000   115.13600000
   H     32.80200000    74.75400000   114.91500000
   H     33.08000000    74.17000000   117.16000000
  Ca     35.92000000    78.13000000   124.80800000
   O     37.86000000    80.02000000   123.86800000
   H     37.64000000    80.46000000   123.04800000
   H     37.83000000    80.71000000   124.52800000
   O     33.40000000    78.34000000   125.63800000
   H     32.83000000    79.09000000   125.43800000
   H     32.82000000    77.72000000   126.07800000
   O     35.17000000    75.63000000   125.21800000
   H     34.44000000    75.65000000   125.83800000
   H     35.41000000    74.71000000   125.15800000
   O     38.59000000    77.20000000   125.09800000
   H     38.96000000    76.32000000   125.04800000
   H     39.32000000    77.78000000   124.89800000
   O     35.08000000    80.48000000   123.46800000
   H     35.56000000    81.11000000   123.99800000
   H     34.98000000    80.91000000   122.61800000
   O     36.56000000    77.18000000   127.26800000
   H     37.48000000    77.24000000   127.55800000
   H     36.10000000    76.83000000   128.02800000

Ca 1.00



