%chk=loop2.cluster75.chk
%nprocshared=20
%mem=10GB
%nosave
#b3lyp/svp scf=(tight,noincore,xqc) Test 
#IOP(5/87=12) Density=Current Pop=(MK,readradii) iop(6/33=2) iop(6/42=6)

loop2.cluster75 

   -2  1 
   C     87.07000000    53.69000000   -22.71000000
   C     85.80000000    53.28000000   -21.99000000
   O     85.86000000    52.77000000   -20.87000000
   H     87.88600000    53.03200000   -22.40900000
   H     86.91900000    53.61200000   -23.78700000
   H     87.31900000    54.71900000   -22.45100000
   N     84.57000000    53.51000000   -22.47000000
   C     84.01000000    54.22000000   -23.60000000
   C     83.20000000    53.37000000   -24.58000000
   O     82.71000000    52.29000000   -24.27000000
   C     83.26000000    55.46000000   -23.14000000
   C     82.23000000    55.36000000   -22.02000000
   O     81.66000000    56.41000000   -21.65000000
   O     81.96000000    54.25000000   -21.52000000
   H     83.93000000    53.06000000   -21.83000000
   H     84.89000000    54.58000000   -24.13000000
   H     82.70000000    55.80000000   -24.01000000
   H     84.00000000    56.25000000   -22.96000000
   N     82.98000000    53.87000000   -25.80000000
   C     82.19000000    53.29000000   -26.86000000
   C     80.70000000    53.05000000   -26.68000000
   O     79.95000000    52.80000000   -27.62000000
   C     82.82000000    51.96000000   -27.28000000
   H     83.61000000    54.60000000   -26.10000000
   H     82.24000000    53.93000000   -27.75000000
   H     82.02000000    51.24000000   -27.43000000
   H     83.25000000    52.16000000   -28.26000000
   H     83.53000000    51.57000000   -26.56000000
   N     80.25000000    53.27000000   -25.45000000
   C     78.87000000    53.30000000   -25.01000000
   C     78.82000000    54.07000000   -23.70000000
   O     79.21000000    53.70000000   -22.59000000
   C     78.29000000    51.90000000   -24.77000000
   C     79.14000000    50.81000000   -24.13000000
   O     79.67000000    51.00000000   -23.02000000
   O     79.23000000    49.76000000   -24.80000000
   H     81.00000000    53.30000000   -24.77000000
   H     78.24000000    53.79000000   -25.75000000
   H     77.96000000    51.48000000   -25.72000000
   H     77.37000000    51.82000000   -24.19000000
   N     78.07000000    55.17000000   -23.85000000
   C     77.78000000    55.97000000   -22.67000000
   C     76.76000000    55.43000000   -21.68000000
   O     75.59000000    55.20000000   -21.97000000
   H     77.51000000    55.31000000   -24.68000000
   H     77.51000000    57.01000000   -22.84000000
   H     78.73000000    56.10000000   -22.16000000
   N     77.15000000    55.07000000   -20.45000000
   C     76.32000000    54.52000000   -19.40000000
   C     76.30000000    55.40000000   -18.16000000
   O     75.27000000    55.45000000   -17.48000000
   C     76.86000000    53.14000000   -19.04000000
   C     76.98000000    52.21000000   -20.24000000
   N     75.92000000    51.66000000   -20.82000000
   O     78.08000000    51.75000000   -20.55000000
   H     78.10000000    55.30000000   -20.20000000
   H     75.29000000    54.38000000   -19.75000000
   H     76.07000000    52.65000000   -18.46000000
   H     77.83000000    53.29000000   -18.56000000
   H     75.02000000    51.68000000   -20.35000000
   H     75.97000000    51.07000000   -21.64000000
   N     77.40000000    56.11000000   -17.88000000
   C     77.41000000    56.99000000   -16.72000000
   C     77.46000000    56.17000000   -15.44000000
   O     77.22000000    54.96000000   -15.37000000
   H     78.22000000    56.10000000   -18.46000000
   H     76.56000000    57.67000000   -16.72000000
   H     78.32000000    57.58000000   -16.71000000
   N     77.44000000    56.84000000   -14.29000000
   C     77.42000000    58.26000000   -14.00000000
   C     78.67000000    58.82000000   -13.33000000
   O     78.76000000    59.96000000   -12.87000000
   C     76.30000000    58.63000000   -13.03000000
   C     75.68000000    60.02000000   -12.92000000
   O     75.19000000    57.82000000   -13.34000000
   H     77.30000000    56.21000000   -13.51000000
   H     77.28000000    58.86000000   -14.90000000
   H     76.63000000    58.51000000   -12.00000000
   H     75.52000000    56.93000000   -13.18000000
   H     74.75000000    59.95000000   -12.36000000
   H     76.34000000    60.68000000   -12.37000000
   H     75.50000000    60.44000000   -13.91000000
   N     79.72000000    58.00000000   -13.30000000
   C     80.95000000    58.21000000   -12.55000000
   C     80.61000000    58.73000000   -11.16000000
   O     80.62000000    59.94000000   -10.94000000
   C     81.98000000    59.01000000   -13.34000000
   C     82.33000000    58.43000000   -14.70000000
   C     83.25000000    59.25000000   -12.53000000
   C     82.95000000    59.47000000   -15.63000000
   H     79.56000000    57.04000000   -13.58000000
   H     81.40000000    57.23000000   -12.42000000
   H     81.49000000    59.95000000   -13.61000000
   H     81.44000000    58.03000000   -15.19000000
   H     82.97000000    57.56000000   -14.53000000
   H     83.17000000    59.21000000   -11.45000000
   H     83.93000000    58.46000000   -12.84000000
   H     83.72000000    60.22000000   -12.71000000
   H     82.18000000    60.13000000   -16.03000000
   H     83.73000000    60.08000000   -15.17000000
   H     83.40000000    58.93000000   -16.46000000
   N     80.24000000    57.94000000   -10.14000000
   C     79.94000000    56.53000000   -10.28000000
   C     81.14000000    55.75000000    -9.76000000
   O     81.58000000    54.87000000   -10.50000000
   C     78.71000000    56.13000000    -9.47000000
   C     78.68000000    56.55000000    -8.00000000
   O     77.79000000    56.02000000    -7.30000000
   O     79.39000000    57.48000000    -7.57000000
   H     80.11000000    58.44000000    -9.27000000
   H     79.76000000    56.32000000   -11.34000000
   H     78.51000000    55.06000000    -9.52000000
   H     77.83000000    56.59000000    -9.92000000
   N     81.64000000    56.06000000    -8.57000000
   C     82.82000000    55.46000000    -7.97000000
   C     82.54000000    54.39000000    -6.93000000
   O     81.53000000    54.44000000    -6.23000000
   C     83.68000000    56.57000000    -7.38000000
   C     83.07000000    57.49000000    -6.35000000
   C     82.50000000    58.68000000    -6.81000000
   C     83.30000000    57.25000000    -4.99000000
   C     82.07000000    59.59000000    -5.83000000
   C     82.94000000    58.26000000    -4.09000000
   C     82.18000000    59.38000000    -4.45000000
   H     81.01000000    56.65000000    -8.04000000
   H     83.29000000    54.86000000    -8.74000000
   H     84.08000000    57.21000000    -8.17000000
   H     84.59000000    56.08000000    -7.05000000
   H     82.42000000    58.75000000    -7.88000000
   H     83.85000000    56.38000000    -4.67000000
   H     81.53000000    60.44000000    -6.20000000
   H     83.21000000    58.12000000    -3.05000000
   H     81.76000000    60.06000000    -3.73000000
   N     83.53000000    53.52000000    -6.70000000
   C     84.73000000    53.30000000    -7.48000000
   C     84.52000000    52.52000000    -8.77000000
   O     83.45000000    52.05000000    -9.14000000
   C     85.73000000    52.61000000    -6.55000000
   C     84.86000000    51.71000000    -5.67000000
   C     83.60000000    52.58000000    -5.60000000
   H     85.13000000    54.27000000    -7.77000000
   H     86.48000000    52.07000000    -7.12000000
   H     86.20000000    53.35000000    -5.92000000
   H     84.67000000    50.71000000    -6.07000000
   H     85.29000000    51.53000000    -4.69000000
   H     82.71000000    51.96000000    -5.59000000
   H     83.74000000    53.14000000    -4.68000000
   N     85.60000000    52.46000000    -9.55000000
   C     85.58000000    51.71000000   -10.79000000
   C     86.45000000    52.21000000   -11.93000000
   O     86.81000000    51.45000000   -12.83000000
   C     85.84000000    50.23000000   -10.52000000
   C     87.01000000    49.88000000    -9.61000000
   C     88.26000000    50.67000000    -9.94000000
   O     89.08000000    50.16000000   -10.73000000
   O     88.46000000    51.74000000    -9.31000000
   H     86.47000000    52.77000000    -9.13000000
   H     84.58000000    51.77000000   -11.23000000
   H     86.00000000    49.70000000   -11.46000000
   H     84.95000000    49.80000000   -10.06000000
   H     87.25000000    48.82000000    -9.65000000
   H     86.70000000    50.16000000    -8.60000000
   N     86.85000000    53.48000000   -12.05000000
   C     86.53000000    54.64000000   -11.25000000
   H     85.52100000    54.53800000   -10.85000000
   H     87.24000000    54.72200000   -10.42700000
   H     86.58600000    55.53600000   -11.86900000
   H     87.50000000    53.61000000   -12.81000000
  Ca     80.64000000    52.10000000   -20.98700000
   O     80.55000000    50.13000000   -19.20700000
   H     80.60000000    50.17000000   -18.25700000
   H     79.92000000    49.43000000   -19.38700000
   O     82.91000000    52.80000000   -19.54700000
   H     82.91000000    53.66000000   -19.12700000
   H     83.82000000    52.66000000   -19.80700000
   O     82.40000000    50.17000000   -21.77700000
   H     81.81000000    49.58000000   -22.24700000
   H     83.19000000    50.19000000   -22.30700000
   O     80.21000000    52.79000000   -18.24700000
   H     80.23000000    51.99000000   -17.72700000
   H     80.47000000    53.48000000   -17.62700000

Ca 1.00



