%chk=loop2.cluster70.chk
%nprocshared=20
%mem=10GB
%nosave
#b3lyp/svp scf=(tight,noincore,xqc) Test 
#IOP(5/87=12) Density=Current Pop=(MK,readradii) iop(6/33=2) iop(6/42=6)

loop2.cluster70 

   -2  1 
   C     50.22000000   -14.78000000    26.51000000
   C     49.91000000   -15.99000000    27.40000000
   O     49.02000000   -15.83000000    28.22000000
   H     51.23300000   -14.86900000    26.11600000
   H     49.51100000   -14.74600000    25.68300000
   H     50.13800000   -13.86600000    27.09800000
   N     50.62000000   -17.12000000    27.32000000
   C     50.61000000   -18.27000000    28.19000000
   C     51.26000000   -17.98000000    29.54000000
   O     50.68000000   -18.31000000    30.57000000
   C     51.15000000   -19.48000000    27.42000000
   C     51.24000000   -20.71000000    28.32000000
   O     52.20000000   -20.68000000    29.12000000
   O     50.41000000   -21.63000000    28.20000000
   H     51.19000000   -17.20000000    26.49000000
   H     49.56000000   -18.54000000    28.30000000
   H     52.19000000   -19.23000000    27.22000000
   H     50.50000000   -19.71000000    26.58000000
   N     52.33000000   -17.18000000    29.57000000
   C     52.97000000   -16.72000000    30.79000000
   C     52.04000000   -16.23000000    31.89000000
   O     52.19000000   -16.64000000    33.04000000
   C     54.09000000   -17.67000000    31.20000000
   H     52.85000000   -16.87000000    28.77000000
   H     53.53000000   -15.81000000    30.56000000
   H     54.55000000   -17.18000000    32.06000000
   H     53.71000000   -18.65000000    31.46000000
   H     54.84000000   -17.74000000    30.41000000
   N     51.16000000   -15.28000000    31.58000000
   C     50.39000000   -14.48000000    32.51000000
   C     49.45000000   -15.24000000    33.43000000
   O     49.24000000   -14.88000000    34.58000000
   C     51.33000000   -13.57000000    33.32000000
   C     52.15000000   -12.72000000    32.36000000
   O     53.31000000   -12.38000000    32.70000000
   O     51.66000000   -12.24000000    31.33000000
   H     51.06000000   -15.13000000    30.59000000
   H     49.85000000   -13.79000000    31.86000000
   H     51.98000000   -14.14000000    33.98000000
   H     50.73000000   -12.78000000    33.76000000
   N     48.79000000   -16.32000000    32.98000000
   C     47.74000000   -17.04000000    33.66000000
   C     46.31000000   -16.54000000    33.47000000
   O     46.02000000   -15.71000000    32.61000000
   H     48.98000000   -16.66000000    32.05000000
   H     48.05000000   -17.12000000    34.71000000
   H     47.69000000   -18.05000000    33.26000000
   N     45.43000000   -17.06000000    34.32000000
   C     44.01000000   -16.78000000    34.47000000
   C     43.26000000   -16.83000000    33.15000000
   O     42.80000000   -15.87000000    32.54000000
   C     43.89000000   -15.43000000    35.17000000
   C     44.29000000   -15.50000000    36.63000000
   N     45.34000000   -14.79000000    37.05000000
   O     43.68000000   -16.22000000    37.43000000
   H     45.76000000   -17.66000000    35.06000000
   H     43.55000000   -17.60000000    35.01000000
   H     42.92000000   -14.96000000    35.03000000
   H     44.61000000   -14.76000000    34.69000000
   H     45.61000000   -13.99000000    36.51000000
   H     45.64000000   -15.02000000    37.99000000
   N     43.05000000   -18.08000000    32.73000000
   C     42.29000000   -18.49000000    31.57000000
   C     42.98000000   -18.26000000    30.23000000
   O     42.79000000   -19.07000000    29.32000000
   H     43.64000000   -18.82000000    33.09000000
   H     41.37000000   -17.91000000    31.60000000
   H     42.08000000   -19.56000000    31.63000000
   N     43.63000000   -17.13000000    29.95000000
   C     44.31000000   -16.71000000    28.74000000
   C     44.01000000   -15.27000000    28.35000000
   O     43.62000000   -14.46000000    29.19000000
   C     45.82000000   -16.87000000    28.83000000
   C     46.36000000   -18.08000000    29.60000000
   O     46.41000000   -16.95000000    27.56000000
   H     43.53000000   -16.52000000    30.75000000
   H     44.06000000   -17.26000000    27.84000000
   H     46.32000000   -16.00000000    29.26000000
   H     47.23000000   -16.47000000    27.67000000
   H     45.77000000   -18.95000000    29.32000000
   H     47.43000000   -18.19000000    29.45000000
   H     46.21000000   -17.96000000    30.68000000
   N     44.20000000   -14.89000000    27.08000000
   C     44.14000000   -13.50000000    26.70000000
   C     45.28000000   -12.75000000    27.36000000
   O     46.28000000   -13.32000000    27.80000000
   C     44.13000000   -13.30000000    25.19000000
   C     45.29000000   -13.98000000    24.47000000
   C     42.82000000   -13.81000000    24.59000000
   C     45.48000000   -13.48000000    23.04000000
   H     44.49000000   -15.61000000    26.43000000
   H     43.22000000   -13.10000000    27.13000000
   H     44.26000000   -12.22000000    25.05000000
   H     45.29000000   -15.07000000    24.40000000
   H     46.19000000   -13.64000000    25.00000000
   H     42.05000000   -13.08000000    24.83000000
   H     42.87000000   -13.89000000    23.51000000
   H     42.65000000   -14.77000000    25.08000000
   H     46.39000000   -12.87000000    22.95000000
   H     45.56000000   -14.35000000    22.39000000
   H     44.60000000   -12.95000000    22.68000000
   N     45.15000000   -11.42000000    27.49000000
   C     46.09000000   -10.67000000    28.30000000
   C     45.58000000   -10.33000000    29.69000000
   O     46.14000000    -9.46000000    30.37000000
   C     46.46000000    -9.44000000    27.49000000
   C     47.71000000    -8.72000000    27.98000000
   O     48.43000000    -9.16000000    28.90000000
   O     47.89000000    -7.58000000    27.51000000
   H     44.42000000   -10.96000000    26.97000000
   H     46.98000000   -11.28000000    28.43000000
   H     45.61000000    -8.76000000    27.59000000
   H     46.57000000    -9.68000000    26.43000000
   N     44.45000000   -10.93000000    30.07000000
   C     43.87000000   -10.84000000    31.39000000
   C     42.65000000    -9.94000000    31.37000000
   O     42.69000000    -8.98000000    32.14000000
   C     43.50000000   -12.19000000    32.00000000
   C     42.63000000   -12.22000000    33.24000000
   C     41.26000000   -12.52000000    33.19000000
   C     43.24000000   -12.11000000    34.49000000
   C     40.52000000   -12.63000000    34.37000000
   C     42.52000000   -12.32000000    35.67000000
   C     41.15000000   -12.62000000    35.62000000
   H     44.11000000   -11.68000000    29.49000000
   H     44.63000000   -10.40000000    32.04000000
   H     44.48000000   -12.53000000    32.36000000
   H     43.08000000   -12.83000000    31.24000000
   H     40.85000000   -12.69000000    32.21000000
   H     44.32000000   -12.01000000    34.49000000
   H     39.51000000   -12.96000000    34.18000000
   H     43.08000000   -12.38000000    36.59000000
   H     40.62000000   -12.80000000    36.54000000
   N     41.56000000   -10.16000000    30.63000000
   C     41.35000000   -11.08000000    29.53000000
   C     41.63000000   -10.43000000    28.18000000
   O     41.44000000   -10.98000000    27.10000000
   C     39.87000000   -11.45000000    29.54000000
   C     39.24000000   -10.12000000    29.95000000
   C     40.27000000    -9.59000000    30.94000000
   H     41.96000000   -11.98000000    29.51000000
   H     39.43000000   -11.88000000    28.64000000
   H     39.71000000   -12.19000000    30.33000000
   H     39.11000000    -9.46000000    29.08000000
   H     38.25000000   -10.27000000    30.37000000
   H     40.21000000    -8.50000000    31.02000000
   H     40.05000000    -9.94000000    31.95000000
   N     42.24000000    -9.24000000    28.12000000
   C     42.18000000    -8.27000000    27.04000000
   C     42.86000000    -8.68000000    25.74000000
   O     43.81000000    -9.47000000    25.77000000
   C     42.80000000    -6.99000000    27.60000000
   C     42.90000000    -5.73000000    26.74000000
   C     44.09000000    -4.82000000    27.01000000
   O     45.24000000    -4.93000000    26.54000000
   O     43.75000000    -3.95000000    27.84000000
   H     42.63000000    -8.85000000    28.97000000
   H     41.16000000    -7.98000000    26.80000000
   H     43.82000000    -7.24000000    27.89000000
   H     42.29000000    -6.80000000    28.54000000
   H     41.92000000    -5.30000000    26.94000000
   H     42.98000000    -5.93000000    25.67000000
   N     42.43000000    -8.24000000    24.56000000
   C     43.01000000    -8.48000000    23.26000000
   H     44.02600000    -8.85700000    23.38000000
   H     42.41100000    -9.21700000    22.72500000
   H     43.03300000    -7.54900000    22.69400000
   H     41.54000000    -7.76000000    24.47000000
  Ca     48.53000000    -8.92200000    31.43000000
   O     47.18000000   -10.45200000    33.29000000
   H     46.64000000   -10.26200000    34.06000000
   H     47.37000000   -11.39200000    33.36000000
   O     49.01000000   -11.40200000    30.98000000
   H     49.89000000   -11.75200000    31.13000000
   H     48.62000000   -12.01200000    30.35000000
   O     49.99000000    -9.93200000    33.60000000
   H     50.90000000   -10.05200000    33.88000000
   H     49.47000000   -10.17200000    34.37000000
   O     47.55000000    -6.42200000    30.74000000
   H     48.03000000    -6.04200000    31.48000000
   H     47.64000000    -5.77200000    30.04000000
   O     51.17000000    -9.66200000    30.95000000
   H     51.45000000   -10.54200000    31.22000000
   H     51.99000000    -9.22200000    30.71000000
   O     49.87000000    -6.49200000    32.29000000
   H     50.69000000    -6.37200000    31.82000000
   H     50.06000000    -6.23200000    33.19000000
   O     47.59000000    -7.59200000    33.57000000
   H     47.69000000    -6.86200000    34.18000000
   H     46.85000000    -8.10200000    33.93000000

Ca 1.00



