%chk=loop3.cluster172.chk
%nprocshared=20
%mem=10GB
%nosave
#b3lyp/svp scf=(tight,noincore,xqc) Test 
#IOP(5/87=12) Density=Current Pop=(MK,readradii) iop(6/33=2) iop(6/42=6)

loop3.cluster172 

   0  1 
   C     48.43000000    17.76000000    12.80000000
   C     47.64000000    18.83000000    12.07000000
   O     47.47000000    18.69000000    10.86000000
   H     49.35100000    18.19200000    13.19000000
   H     47.83500000    17.36800000    13.62500000
   H     48.67200000    16.95200000    12.11000000
   N     47.27000000    19.89000000    12.81000000
   C     46.59000000    21.05000000    12.26000000
   C     45.09000000    20.96000000    12.48000000
   O     44.53000000    20.25000000    13.31000000
   C     47.11000000    22.35000000    12.87000000
   C     48.61000000    22.62000000    12.91000000
   O     49.09000000    23.68000000    13.35000000
   O     49.33000000    21.69000000    12.47000000
   H     47.43000000    19.77000000    13.80000000
   H     46.78000000    21.05000000    11.19000000
   H     46.95000000    22.30000000    13.95000000
   H     46.56000000    23.22000000    12.53000000
   N     44.34000000    21.77000000    11.73000000
   C     42.98000000    22.20000000    11.96000000
   C     42.63000000    22.56000000    13.40000000
   O     41.56000000    22.22000000    13.92000000
   C     41.98000000    21.29000000    11.25000000
   C     42.09000000    21.54000000     9.75000000
   C     41.01000000    20.84000000     8.92000000
   C     41.01000000    19.33000000     9.13000000
   N     39.67000000    18.87000000     8.72000000
   H     44.89000000    22.30000000    11.07000000
   H     42.98000000    23.14000000    11.40000000
   H     40.97000000    21.46000000    11.64000000
   H     42.29000000    20.26000000    11.38000000
   H     43.06000000    21.22000000     9.38000000
   H     41.92000000    22.58000000     9.49000000
   H     41.23000000    21.09000000     7.88000000
   H     40.05000000    21.17000000     9.31000000
   H     41.14000000    19.11000000    10.19000000
   H     41.80000000    18.88000000     8.53000000
   H     39.40000000    18.03000000     9.21000000
   H     39.01000000    19.57000000     9.05000000
   H     39.73000000    18.68000000     7.73000000
   N     43.50000000    23.29000000    14.10000000
   C     43.27000000    23.63000000    15.48000000
   C     44.05000000    24.87000000    15.89000000
   O     45.22000000    25.05000000    15.55000000
   C     43.66000000    22.46000000    16.39000000
   C     43.18000000    22.60000000    17.83000000
   O     42.33000000    23.45000000    18.17000000
   O     43.79000000    21.98000000    18.72000000
   H     44.30000000    23.71000000    13.65000000
   H     42.20000000    23.83000000    15.60000000
   H     44.75000000    22.39000000    16.39000000
   H     43.22000000    21.55000000    15.97000000
   N     43.51000000    25.76000000    16.73000000
   C     44.17000000    26.84000000    17.42000000
   C     44.66000000    26.46000000    18.82000000
   O     43.87000000    25.83000000    19.52000000
   H     42.57000000    25.51000000    17.01000000
   H     43.55000000    27.73000000    17.55000000
   H     45.11000000    27.07000000    16.91000000
   N     45.95000000    26.63000000    19.10000000
   C     46.52000000    26.27000000    20.38000000
   C     47.38000000    27.35000000    21.03000000
   O     47.13000000    27.73000000    22.17000000
   C     47.28000000    24.96000000    20.19000000
   C     46.28000000    23.84000000    19.94000000
   N     46.48000000    22.96000000    18.95000000
   O     45.27000000    23.68000000    20.62000000
   H     46.56000000    27.07000000    18.43000000
   H     45.74000000    26.10000000    21.13000000
   H     47.81000000    24.63000000    21.08000000
   H     47.94000000    25.09000000    19.33000000
   H     47.24000000    23.05000000    18.30000000
   H     45.78000000    22.23000000    18.86000000
   N     48.32000000    27.92000000    20.28000000
   C     49.16000000    28.97000000    20.82000000
   C     50.02000000    28.50000000    21.99000000
   O     50.95000000    27.73000000    21.79000000
   H     48.55000000    27.63000000    19.34000000
   H     48.47000000    29.73000000    21.18000000
   H     49.67000000    29.42000000    19.97000000
   N     49.72000000    28.88000000    23.23000000
   C     50.40000000    28.69000000    24.49000000
   C     50.44000000    27.26000000    25.02000000
   O     51.35000000    26.88000000    25.76000000
   C     51.75000000    29.40000000    24.55000000
   C     51.78000000    30.76000000    23.89000000
   C     52.10000000    30.99000000    22.55000000
   C     51.43000000    31.82000000    24.74000000
   C     51.91000000    32.26000000    21.99000000
   C     51.30000000    33.11000000    24.22000000
   C     51.55000000    33.32000000    22.85000000
   O     51.41000000    34.56000000    22.31000000
   H     48.97000000    29.56000000    23.28000000
   H     49.75000000    29.14000000    25.24000000
   H     52.38000000    28.75000000    23.95000000
   H     52.28000000    29.46000000    25.51000000
   H     52.55000000    30.20000000    21.97000000
   H     51.10000000    31.66000000    25.76000000
   H     52.09000000    32.40000000    20.94000000
   H     51.15000000    33.91000000    24.93000000
   H     51.21000000    35.12000000    23.06000000
   N     49.42000000    26.45000000    24.74000000
   C     49.16000000    25.09000000    25.16000000
   C     48.61000000    25.15000000    26.58000000
   O     47.48000000    24.72000000    26.78000000
   C     50.36000000    24.16000000    25.00000000
   C     50.74000000    24.03000000    23.53000000
   C     49.94000000    22.77000000    25.45000000
   C     52.05000000    23.30000000    23.25000000
   H     48.74000000    26.90000000    24.14000000
   H     48.30000000    24.76000000    24.59000000
   H     51.27000000    24.39000000    25.55000000
   H     50.97000000    25.04000000    23.18000000
   H     49.89000000    23.67000000    22.95000000
   H     49.17000000    22.46000000    24.74000000
   H     50.74000000    22.03000000    25.40000000
   H     49.51000000    22.79000000    26.46000000
   H     52.14000000    23.14000000    22.17000000
   H     52.94000000    23.80000000    23.62000000
   H     51.96000000    22.31000000    23.70000000
   N     49.39000000    25.67000000    27.53000000
   C     49.02000000    25.93000000    28.91000000
   C     48.83000000    24.68000000    29.75000000
   O     48.17000000    24.76000000    30.79000000
   C     50.19000000    26.67000000    29.56000000
   O     50.25000000    27.91000000    28.88000000
   H     50.24000000    26.15000000    27.27000000
   H     48.12000000    26.54000000    28.95000000
   H     51.05000000    26.05000000    29.32000000
   H     49.98000000    26.85000000    30.62000000
   H     49.37000000    28.30000000    28.90000000
   N     49.34000000    23.53000000    29.29000000
   C     48.96000000    22.22000000    29.77000000
   C     47.46000000    21.98000000    29.79000000
   O     46.96000000    21.20000000    30.60000000
   C     49.56000000    21.91000000    31.14000000
   H     49.85000000    23.62000000    28.42000000
   H     49.37000000    21.46000000    29.10000000
   H     49.31000000    22.66000000    31.89000000
   H     49.36000000    20.87000000    31.39000000
   H     50.65000000    21.97000000    31.11000000
   N     46.72000000    22.66000000    28.91000000
   C     45.31000000    22.41000000    28.71000000
   C     45.12000000    21.38000000    27.60000000
   O     46.01000000    21.10000000    26.79000000
   C     44.73000000    23.77000000    28.35000000
   H     47.04000000    23.20000000    28.12000000
   H     44.87000000    22.15000000    29.68000000
   H     44.58000000    24.33000000    29.28000000
   H     45.22000000    24.35000000    27.57000000
   H     43.72000000    23.67000000    27.96000000
   N     43.89000000    20.88000000    27.47000000
   C     43.37000000    19.95000000    26.48000000
   C     44.01000000    18.57000000    26.38000000
   O     43.77000000    17.92000000    25.37000000
   C     43.25000000    20.64000000    25.12000000
   C     42.43000000    21.92000000    25.17000000
   C     42.40000000    22.65000000    23.83000000
   O     43.36000000    22.67000000    23.04000000
   O     41.36000000    23.18000000    23.37000000
   H     43.19000000    21.38000000    27.99000000
   H     42.36000000    19.70000000    26.78000000
   H     42.77000000    20.02000000    24.36000000
   H     44.25000000    20.88000000    24.75000000
   H     42.87000000    22.62000000    25.88000000
   H     41.45000000    21.57000000    25.50000000
   N     44.86000000    18.15000000    27.32000000
   C     45.61000000    16.91000000    27.31000000
   H     46.56000000    17.05700000    27.82400000
   H     45.03800000    16.13500000    27.81900000
   H     45.79800000    16.60600000    26.28000000
   H     45.10000000    18.83000000    28.03000000
  Ca     42.56000000    23.83000000    20.85000000
   O     41.61000000    21.23000000    20.47000000
   H     40.89000000    20.72000000    20.85000000
   H     41.66000000    20.93000000    19.56000000
   O     39.74000000    24.53000000    19.90000000
   H     39.97000000    25.29000000    19.38000000
   H     38.79000000    24.47000000    19.83000000
   O     43.92000000    25.44000000    22.63000000
   H     44.55000000    25.07000000    23.25000000
   H     44.07000000    26.38000000    22.67000000
   O     41.67000000    26.41000000    21.58000000
   H     41.99000000    27.18000000    21.11000000
   H     41.73000000    26.65000000    22.51000000

Ca 1.00



