%chk=loop1.cluster138.chk
%nprocshared=20
%mem=10GB
%nosave
#b3lyp/svp scf=(tight,noincore,xqc) Test 
#IOP(5/87=12) Density=Current Pop=(MK,readradii) iop(6/33=2) iop(6/42=6)

loop1.cluster138 

   0  1 
   C     78.13000000    59.16000000    24.27000000
   C     78.72000000    59.49000000    22.90000000
   O     78.26000000    58.94000000    21.90000000
   H     77.11300000    58.78900000    24.14700000
   H     78.73900000    58.39600000    24.75400000
   H     78.11600000    60.05900000    24.88600000
   N     79.69000000    60.39000000    22.78000000
   C     80.34000000    60.92000000    21.60000000
   C     81.37000000    59.94000000    21.05000000
   O     82.46000000    59.76000000    21.57000000
   C     80.99000000    62.27000000    21.89000000
   C     81.56000000    63.01000000    20.69000000
   O     82.23000000    64.05000000    20.84000000
   O     81.34000000    62.61000000    19.52000000
   H     80.03000000    60.78000000    23.65000000
   H     79.66000000    61.20000000    20.79000000
   H     81.73000000    62.18000000    22.68000000
   H     80.14000000    62.84000000    22.28000000
   N     80.90000000    59.15000000    20.07000000
   C     81.64000000    57.99000000    19.61000000
   C     82.85000000    58.20000000    18.71000000
   O     83.83000000    57.48000000    18.90000000
   C     80.61000000    57.18000000    18.83000000
   C     79.70000000    56.42000000    19.79000000
   C     80.39000000    55.56000000    20.84000000
   C     79.50000000    54.63000000    21.66000000
   N     78.51000000    55.34000000    22.47000000
   H     80.04000000    59.49000000    19.68000000
   H     82.02000000    57.45000000    20.47000000
   H     81.13000000    56.49000000    18.17000000
   H     80.01000000    57.85000000    18.20000000
   H     79.07000000    55.72000000    19.24000000
   H     79.13000000    57.23000000    20.25000000
   H     81.01000000    56.10000000    21.56000000
   H     81.13000000    55.00000000    20.27000000
   H     80.21000000    54.14000000    22.33000000
   H     79.03000000    53.97000000    20.94000000
   H     78.85000000    55.89000000    23.25000000
   H     77.92000000    55.92000000    21.88000000
   H     77.86000000    54.72000000    22.93000000
   N     82.73000000    59.09000000    17.73000000
   C     83.95000000    59.55000000    17.10000000
   C     84.73000000    60.58000000    17.90000000
   O     85.92000000    60.82000000    17.71000000
   C     83.67000000    60.06000000    15.69000000
   C     82.72000000    61.24000000    15.53000000
   O     82.74000000    61.86000000    14.44000000
   O     81.81000000    61.47000000    16.35000000
   H     81.97000000    59.76000000    17.63000000
   H     84.67000000    58.74000000    16.94000000
   H     83.22000000    59.23000000    15.15000000
   H     84.60000000    60.21000000    15.13000000
   N     84.10000000    61.16000000    18.92000000
   C     84.75000000    62.04000000    19.88000000
   C     85.19000000    63.38000000    19.31000000
   O     86.39000000    63.61000000    19.36000000
   H     83.14000000    60.97000000    19.19000000
   H     85.57000000    61.47000000    20.31000000
   H     84.13000000    62.21000000    20.76000000
   N     84.18000000    64.16000000    18.91000000
   C     84.51000000    65.31000000    18.09000000
   C     83.98000000    66.57000000    18.75000000
   O     84.09000000    67.66000000    18.19000000
   C     84.07000000    65.09000000    16.65000000
   C     82.57000000    64.98000000    16.38000000
   O     81.77000000    64.64000000    17.28000000
   O     82.08000000    65.19000000    15.25000000
   H     83.21000000    63.91000000    18.89000000
   H     85.60000000    65.39000000    18.07000000
   H     84.43000000    64.12000000    16.30000000
   H     84.44000000    65.97000000    16.13000000
   N     83.29000000    66.52000000    19.90000000
   C     82.68000000    67.62000000    20.62000000
   C     81.16000000    67.72000000    20.67000000
   O     80.55000000    68.46000000    21.45000000
   H     83.33000000    65.60000000    20.30000000
   H     83.11000000    68.55000000    20.26000000
   H     83.04000000    67.45000000    21.64000000
   N     80.58000000    66.73000000    20.00000000
   C     79.18000000    66.83000000    19.62000000
   C     78.46000000    65.49000000    19.61000000
   O     78.92000000    64.63000000    18.86000000
   C     79.12000000    67.51000000    18.25000000
   C     79.17000000    69.03000000    18.33000000
   O     80.22000000    67.08000000    17.49000000
   H     81.24000000    66.15000000    19.51000000
   H     78.58000000    67.50000000    20.22000000
   H     78.24000000    67.14000000    17.72000000
   H     80.39000000    66.16000000    17.72000000
   H     80.17000000    69.35000000    18.60000000
   H     78.94000000    69.47000000    17.36000000
   H     78.38000000    69.31000000    19.03000000
   N     77.39000000    65.35000000    20.39000000
   C     76.48000000    64.22000000    20.40000000
   C     75.35000000    64.48000000    19.42000000
   O     74.62000000    65.46000000    19.61000000
   C     75.83000000    64.04000000    21.77000000
   C     76.75000000    64.01000000    22.98000000
   C     74.95000000    62.79000000    21.68000000
   C     76.07000000    63.70000000    24.31000000
   H     77.08000000    66.20000000    20.84000000
   H     77.02000000    63.32000000    20.11000000
   H     75.27000000    64.95000000    21.99000000
   H     77.25000000    64.97000000    23.09000000
   H     77.53000000    63.26000000    22.81000000
   H     74.48000000    62.52000000    22.62000000
   H     74.17000000    62.90000000    20.92000000
   H     75.57000000    62.03000000    21.21000000
   H     76.78000000    63.72000000    25.14000000
   H     75.26000000    64.37000000    24.59000000
   H     75.70000000    62.68000000    24.18000000
   N     75.19000000    63.61000000    18.43000000
   C     74.14000000    63.63000000    17.42000000
   C     72.91000000    62.81000000    17.79000000
   O     72.93000000    62.07000000    18.76000000
   C     74.68000000    63.04000000    16.12000000
   C     75.76000000    63.97000000    15.57000000
   O     75.23000000    61.76000000    16.33000000
   H     75.82000000    62.82000000    18.47000000
   H     73.75000000    64.61000000    17.15000000
   H     73.91000000    63.01000000    15.35000000
   H     76.11000000    61.99000000    16.64000000
   H     76.33000000    63.38000000    14.85000000
   H     75.37000000    64.73000000    14.89000000
   H     76.52000000    64.24000000    16.30000000
   N     71.84000000    62.94000000    16.99000000
   C     70.72000000    62.06000000    17.25000000
   C     71.05000000    60.59000000    17.01000000
   O     70.46000000    59.71000000    17.63000000
   C     69.47000000    62.36000000    16.43000000
   C     68.87000000    63.75000000    16.65000000
   O     69.70000000    62.18000000    15.05000000
   H     71.83000000    63.64000000    16.26000000
   H     70.48000000    62.17000000    18.30000000
   H     68.72000000    61.62000000    16.71000000
   H     68.82000000    62.27000000    14.68000000
   H     69.39000000    64.48000000    16.03000000
   H     67.84000000    63.68000000    16.32000000
   H     68.78000000    63.94000000    17.72000000
   N     72.00000000    60.34000000    16.10000000
   C     72.53000000    59.02000000    15.81000000
   C     73.32000000    58.50000000    17.00000000
   O     73.10000000    57.34000000    17.34000000
   C     73.44000000    59.17000000    14.60000000
   C     73.82000000    57.80000000    14.03000000
   C     72.70000000    56.85000000    13.65000000
   C     71.73000000    57.61000000    12.75000000
   N     70.67000000    56.68000000    12.32000000
   H     72.16000000    61.06000000    15.41000000
   H     71.69000000    58.38000000    15.53000000
   H     74.35000000    59.76000000    14.76000000
   H     72.81000000    59.64000000    13.85000000
   H     74.51000000    57.30000000    14.72000000
   H     74.31000000    58.06000000    13.09000000
   H     72.22000000    56.43000000    14.53000000
   H     73.12000000    55.99000000    13.11000000
   H     72.20000000    58.08000000    11.89000000
   H     71.29000000    58.47000000    13.26000000
   H     71.02000000    55.77000000    12.08000000
   H     70.09000000    56.61000000    13.15000000
   H     70.15000000    57.04000000    11.53000000
   N     74.11000000    59.34000000    17.68000000
   C     74.72000000    58.93000000    18.92000000
   C     73.80000000    58.70000000    20.11000000
   O     74.05000000    57.83000000    20.93000000
   C     75.84000000    59.92000000    19.24000000
   C     76.99000000    59.59000000    18.28000000
   C     77.97000000    60.74000000    18.19000000
   O     77.64000000    61.91000000    17.89000000
   O     79.20000000    60.48000000    18.20000000
   H     74.23000000    60.27000000    17.31000000
   H     75.15000000    57.93000000    18.79000000
   H     76.22000000    59.88000000    20.26000000
   H     75.41000000    60.91000000    19.08000000
   H     76.67000000    59.51000000    17.24000000
   H     77.44000000    58.62000000    18.47000000
   N     72.68000000    59.43000000    20.16000000
   C     71.67000000    59.15000000    21.16000000
   H     70.74700000    58.84400000    20.66800000
   H     72.01600000    58.34800000    21.81200000
   H     71.48600000    60.04600000    21.75200000
   H     72.36000000    60.04000000    19.43000000
  Ca     79.91000000    62.91000000    17.18000000
   O     79.04000000    64.99000000    15.88000000
   H     78.41000000    65.15000000    15.18000000
   H     79.66000000    65.71000000    15.82000000
   O     80.70000000    63.32000000    14.04000000
   H     81.41000000    62.69000000    14.12000000
   H     81.10000000    64.17000000    14.26000000
   O     78.64000000    61.94000000    15.03000000
   H     78.05000000    61.29000000    14.66000000
   H     79.21000000    62.19000000    14.30000000

Ca 1.00



