%chk=loop2.cluster81.chk
%nprocshared=20
%mem=10GB
%nosave
#b3lyp/svp scf=(tight,noincore,xqc) Test 
#IOP(5/87=12) Density=Current Pop=(MK,readradii) iop(6/33=2) iop(6/42=6)

loop2.cluster81 

   -2  1 
   C     42.03000000    23.87000000   -23.22000000
   C     42.27000000    22.60000000   -24.01000000
   O     43.42000000    22.20000000   -24.18000000
   H     41.01900000    23.85900000   -22.81400000
   H     42.74900000    23.93100000   -22.40300000
   H     42.14900000    24.73400000   -23.87400000
   N     41.29000000    21.89000000   -24.56000000
   C     41.58000000    20.83000000   -25.52000000
   C     41.99000000    21.37000000   -26.88000000
   O     41.34000000    22.28000000   -27.38000000
   C     40.42000000    19.85000000   -25.62000000
   C     40.50000000    18.97000000   -26.86000000
   O     41.50000000    18.23000000   -26.99000000
   O     39.56000000    19.04000000   -27.68000000
   H     40.34000000    22.11000000   -24.30000000
   H     42.37000000    20.25000000   -25.06000000
   H     39.52000000    20.46000000   -25.69000000
   H     40.27000000    19.23000000   -24.74000000
   N     43.13000000    20.88000000   -27.39000000
   C     43.66000000    21.37000000   -28.64000000
   C     43.29000000    20.49000000   -29.82000000
   O     43.48000000    20.94000000   -30.95000000
   C     45.18000000    21.50000000   -28.57000000
   H     43.75000000    20.25000000   -26.90000000
   H     43.18000000    22.34000000   -28.79000000
   H     45.52000000    20.47000000   -28.40000000
   H     45.56000000    21.65000000   -29.58000000
   H     45.51000000    22.20000000   -27.80000000
   N     42.79000000    19.26000000   -29.64000000
   C     42.41000000    18.37000000   -30.72000000
   C     40.98000000    18.44000000   -31.21000000
   O     40.77000000    17.97000000   -32.33000000
   C     42.56000000    16.99000000   -30.08000000
   C     43.93000000    16.63000000   -29.54000000
   O     44.06000000    16.63000000   -28.29000000
   O     44.93000000    16.40000000   -30.26000000
   H     42.55000000    18.98000000   -28.70000000
   H     43.07000000    18.43000000   -31.59000000
   H     42.31000000    16.23000000   -30.82000000
   H     41.81000000    16.90000000   -29.29000000
   N     39.97000000    18.93000000   -30.48000000
   C     38.57000000    18.82000000   -30.84000000
   C     37.88000000    17.51000000   -30.51000000
   O     36.96000000    17.04000000   -31.17000000
   H     40.14000000    19.29000000   -29.55000000
   H     38.48000000    19.13000000   -31.88000000
   H     38.12000000    19.59000000   -30.21000000
   N     38.44000000    16.80000000   -29.52000000
   C     37.97000000    15.54000000   -29.00000000
   C     37.34000000    15.51000000   -27.62000000
   O     36.86000000    14.46000000   -27.19000000
   C     39.19000000    14.62000000   -29.04000000
   C     40.00000000    14.56000000   -27.76000000
   N     40.17000000    13.39000000   -27.13000000
   O     40.50000000    15.52000000   -27.17000000
   H     39.11000000    17.30000000   -28.95000000
   H     37.19000000    15.23000000   -29.70000000
   H     39.75000000    14.90000000   -29.94000000
   H     38.92000000    13.59000000   -29.29000000
   H     39.72000000    12.59000000   -27.55000000
   H     40.71000000    13.38000000   -26.28000000
   N     37.44000000    16.61000000   -26.87000000
   C     36.54000000    16.82000000   -25.75000000
   C     37.02000000    16.28000000   -24.41000000
   O     36.22000000    16.21000000   -23.48000000
   H     38.05000000    17.32000000   -27.24000000
   H     35.53000000    16.52000000   -26.02000000
   H     36.56000000    17.90000000   -25.60000000
   N     38.26000000    15.78000000   -24.36000000
   C     38.89000000    15.42000000   -23.11000000
   C     40.27000000    16.06000000   -22.98000000
   O     40.94000000    16.28000000   -23.99000000
   C     38.98000000    13.93000000   -22.82000000
   C     37.62000000    13.28000000   -22.59000000
   O     39.55000000    13.27000000   -23.93000000
   H     38.82000000    15.79000000   -25.20000000
   H     38.32000000    15.77000000   -22.24000000
   H     39.62000000    13.88000000   -21.94000000
   H     39.13000000    12.41000000   -24.01000000
   H     37.07000000    13.09000000   -23.52000000
   H     37.76000000    12.39000000   -21.97000000
   H     37.15000000    14.03000000   -21.96000000
   N     40.72000000    16.30000000   -21.75000000
   C     42.00000000    16.82000000   -21.32000000
   C     42.98000000    15.67000000   -21.21000000
   O     42.75000000    14.68000000   -20.52000000
   C     41.79000000    17.66000000   -20.06000000
   C     40.74000000    18.76000000   -20.22000000
   C     43.07000000    18.34000000   -19.60000000
   C     40.85000000    19.58000000   -21.50000000
   H     40.12000000    15.83000000   -21.09000000
   H     42.37000000    17.51000000   -22.09000000
   H     41.42000000    17.01000000   -19.27000000
   H     40.65000000    19.34000000   -19.30000000
   H     39.79000000    18.22000000   -20.16000000
   H     42.88000000    18.99000000   -18.75000000
   H     43.75000000    17.60000000   -19.17000000
   H     43.62000000    18.90000000   -20.36000000
   H     41.86000000    19.96000000   -21.65000000
   H     40.53000000    19.03000000   -22.38000000
   H     40.17000000    20.42000000   -21.41000000
   N     44.08000000    15.88000000   -21.94000000
   C     45.29000000    15.10000000   -21.79000000
   C     46.34000000    15.72000000   -20.88000000
   O     46.16000000    16.88000000   -20.50000000
   C     45.91000000    14.70000000   -23.13000000
   C     44.91000000    14.29000000   -24.20000000
   O     44.37000000    13.16000000   -24.15000000
   O     44.78000000    15.01000000   -25.21000000
   H     44.16000000    16.70000000   -22.53000000
   H     45.02000000    14.19000000   -21.26000000
   H     46.61000000    13.88000000   -22.97000000
   H     46.49000000    15.52000000   -23.55000000
   N     47.42000000    15.04000000   -20.49000000
   C     48.37000000    15.64000000   -19.58000000
   C     49.09000000    16.92000000   -19.98000000
   O     49.07000000    17.89000000   -19.22000000
   C     49.40000000    14.64000000   -19.05000000
   C     50.26000000    15.28000000   -17.99000000
   C     51.56000000    15.68000000   -18.31000000
   C     49.77000000    15.45000000   -16.69000000
   C     52.32000000    16.29000000   -17.30000000
   C     50.55000000    16.10000000   -15.73000000
   C     51.86000000    16.53000000   -16.00000000
   H     47.54000000    14.09000000   -20.82000000
   H     47.85000000    15.96000000   -18.68000000
   H     49.99000000    14.13000000   -19.81000000
   H     48.82000000    13.83000000   -18.60000000
   H     51.95000000    15.47000000   -19.29000000
   H     48.78000000    15.05000000   -16.48000000
   H     53.30000000    16.67000000   -17.51000000
   H     50.11000000    16.30000000   -14.76000000
   H     52.48000000    16.98000000   -15.24000000
   N     49.46000000    17.11000000   -21.24000000
   C     49.99000000    18.39000000   -21.68000000
   C     48.92000000    19.47000000   -21.73000000
   O     49.24000000    20.66000000   -21.68000000
   C     50.54000000    18.16000000   -23.08000000
   C     50.88000000    16.67000000   -23.04000000
   C     49.75000000    16.08000000   -22.21000000
   H     50.81000000    18.61000000   -21.00000000
   H     49.74000000    18.39000000   -23.78000000
   H     51.39000000    18.76000000   -23.41000000
   H     51.01000000    16.31000000   -24.06000000
   H     51.82000000    16.51000000   -22.50000000
   H     48.86000000    15.90000000   -22.81000000
   H     50.12000000    15.19000000   -21.69000000
   N     47.65000000    19.09000000   -21.89000000
   C     46.47000000    19.93000000   -21.86000000
   C     46.07000000    20.44000000   -20.48000000
   O     45.87000000    21.63000000   -20.21000000
   C     45.33000000    19.44000000   -22.73000000
   C     45.68000000    19.19000000   -24.19000000
   C     44.47000000    18.50000000   -24.81000000
   O     44.33000000    18.60000000   -26.05000000
   O     43.85000000    17.63000000   -24.16000000
   H     47.49000000    18.09000000   -21.82000000
   H     46.80000000    20.84000000   -22.37000000
   H     44.43000000    20.06000000   -22.70000000
   H     45.12000000    18.46000000   -22.29000000
   H     46.58000000    18.58000000   -24.27000000
   H     45.91000000    20.14000000   -24.67000000
   N     46.25000000    19.52000000   -19.53000000
   C     46.24000000    19.88000000   -18.12000000
   H     45.60600000    20.75400000   -17.97300000
   H     45.85100000    19.04700000   -17.53400000
   H     47.25500000    20.11000000   -17.79600000
   H     46.36000000    18.55000000   -19.77000000
  Ca     42.82000000    16.28000000   -26.15000000
   O     43.43000000    13.77000000   -28.20000000
   H     43.56000000    13.58000000   -29.13000000
   H     44.02000000    13.18000000   -27.74000000
   O     42.00000000    13.87000000   -25.07000000
   H     42.80000000    13.65000000   -24.60000000
   H     41.30000000    13.46000000   -24.56000000

Ca 1.00



