%chk=loop3.cluster101.chk
%nprocshared=20
%mem=10GB
%nosave
#b3lyp/svp scf=(tight,noincore,xqc) Test 
#IOP(5/87=12) Density=Current Pop=(MK,readradii) iop(6/33=2) iop(6/42=6)

loop3.cluster101 

   0  1 
   C     60.06000000    61.23000000    38.69000000
   C     59.89000000    62.74000000    38.58000000
   O     60.28000000    63.30000000    37.56000000
   H     60.96900000    61.00700000    39.24900000
   H     59.20200000    60.80400000    39.20900000
   H     60.13200000    60.79800000    37.69200000
   N     59.31000000    63.38000000    39.60000000
   C     59.18000000    64.82000000    39.72000000
   C     58.70000000    65.52000000    38.46000000
   O     59.44000000    66.39000000    37.99000000
   C     58.24000000    65.31000000    40.82000000
   C     58.63000000    64.63000000    42.13000000
   O     59.20000000    65.37000000    42.96000000
   O     58.48000000    63.40000000    42.27000000
   H     58.97000000    62.79000000    40.34000000
   H     60.18000000    65.24000000    39.84000000
   H     57.19000000    65.04000000    40.69000000
   H     58.31000000    66.39000000    40.94000000
   N     57.53000000    65.16000000    37.92000000
   C     56.96000000    65.74000000    36.73000000
   C     56.74000000    67.24000000    36.74000000
   O     56.84000000    67.85000000    35.68000000
   C     55.58000000    65.17000000    36.42000000
   C     54.50000000    65.62000000    37.39000000
   C     53.13000000    64.94000000    37.37000000
   C     51.89000000    65.81000000    37.53000000
   N     51.90000000    66.41000000    38.87000000
   H     56.99000000    64.47000000    38.43000000
   H     57.65000000    65.67000000    35.88000000
   H     55.61000000    64.08000000    36.32000000
   H     55.23000000    65.56000000    35.46000000
   H     54.26000000    66.67000000    37.20000000
   H     54.89000000    65.57000000    38.41000000
   H     53.11000000    64.08000000    38.03000000
   H     53.04000000    64.48000000    36.38000000
   H     51.06000000    65.10000000    37.44000000
   H     51.85000000    66.57000000    36.75000000
   H     50.99000000    66.75000000    39.16000000
   H     52.19000000    65.74000000    39.57000000
   H     52.44000000    67.25000000    38.97000000
   N     56.64000000    67.89000000    37.90000000
   C     56.47000000    69.31000000    38.12000000
   C     56.97000000    69.75000000    39.49000000
   O     56.74000000    69.03000000    40.46000000
   C     55.01000000    69.68000000    37.88000000
   C     53.92000000    68.87000000    38.57000000
   O     54.14000000    67.99000000    39.42000000
   O     52.69000000    69.05000000    38.40000000
   H     56.53000000    67.40000000    38.78000000
   H     57.08000000    69.73000000    37.32000000
   H     54.79000000    69.72000000    36.81000000
   H     54.94000000    70.73000000    38.14000000
   N     57.66000000    70.89000000    39.54000000
   C     58.24000000    71.50000000    40.72000000
   C     57.36000000    71.98000000    41.86000000
   O     57.42000000    73.10000000    42.36000000
   H     57.84000000    71.47000000    38.73000000
   H     58.67000000    72.44000000    40.36000000
   H     58.96000000    70.79000000    41.13000000
   N     56.50000000    71.09000000    42.36000000
   C     55.50000000    71.54000000    43.31000000
   C     56.03000000    71.71000000    44.72000000
   O     55.31000000    71.94000000    45.68000000
   C     54.29000000    70.64000000    43.07000000
   C     53.76000000    70.51000000    41.65000000
   N     52.84000000    69.57000000    41.42000000
   O     54.15000000    71.19000000    40.71000000
   H     56.33000000    70.24000000    41.83000000
   H     55.24000000    72.58000000    43.12000000
   H     53.41000000    70.84000000    43.69000000
   H     54.54000000    69.63000000    43.38000000
   H     52.38000000    69.02000000    42.13000000
   H     52.65000000    69.35000000    40.46000000
   N     57.33000000    71.49000000    44.97000000
   C     57.97000000    71.66000000    46.26000000
   C     57.52000000    70.69000000    47.34000000
   O     57.44000000    69.52000000    47.00000000
   H     57.89000000    71.13000000    44.21000000
   H     57.64000000    72.63000000    46.64000000
   H     59.04000000    71.51000000    46.08000000
   N     57.23000000    71.15000000    48.56000000
   C     56.67000000    70.32000000    49.60000000
   C     55.31000000    69.70000000    49.27000000
   O     54.66000000    69.21000000    50.19000000
   C     57.73000000    69.42000000    50.23000000
   C     57.61000000    68.87000000    51.63000000
   C     57.98000000    69.74000000    52.66000000
   C     57.11000000    67.58000000    51.87000000
   C     57.91000000    69.28000000    53.98000000
   C     57.14000000    67.14000000    53.20000000
   C     57.45000000    67.98000000    54.28000000
   O     57.37000000    67.62000000    55.59000000
   H     57.44000000    72.13000000    48.69000000
   H     56.41000000    70.95000000    50.45000000
   H     58.71000000    69.88000000    50.09000000
   H     57.78000000    68.58000000    49.54000000
   H     58.27000000    70.77000000    52.50000000
   H     56.78000000    66.95000000    51.06000000
   H     58.16000000    69.98000000    54.76000000
   H     56.88000000    66.13000000    53.49000000
   H     57.49000000    66.67000000    55.69000000
   N     54.75000000    69.77000000    48.06000000
   C     53.51000000    69.24000000    47.54000000
   C     52.26000000    70.02000000    47.94000000
   O     51.40000000    70.28000000    47.10000000
   C     53.30000000    67.74000000    47.72000000
   C     54.54000000    67.01000000    47.20000000
   C     52.06000000    67.27000000    46.96000000
   C     54.93000000    67.35000000    45.76000000
   H     55.29000000    70.30000000    47.39000000
   H     53.49000000    69.49000000    46.48000000
   H     53.11000000    67.51000000    48.77000000
   H     54.38000000    65.95000000    47.36000000
   H     55.41000000    67.23000000    47.82000000
   H     51.19000000    67.53000000    47.56000000
   H     52.00000000    67.74000000    45.98000000
   H     52.07000000    66.18000000    46.85000000
   H     55.51000000    66.55000000    45.30000000
   H     54.07000000    67.41000000    45.09000000
   H     55.46000000    68.29000000    45.58000000
   N     52.00000000    70.44000000    49.18000000
   C     50.76000000    71.07000000    49.60000000
   C     49.48000000    70.26000000    49.44000000
   O     48.41000000    70.84000000    49.28000000
   C     50.82000000    71.63000000    51.01000000
   O     52.08000000    72.25000000    51.17000000
   H     52.63000000    70.21000000    49.93000000
   H     50.72000000    71.95000000    48.96000000
   H     50.73000000    70.84000000    51.76000000
   H     50.01000000    72.36000000    50.95000000
   H     52.13000000    72.62000000    52.05000000
   N     49.53000000    68.93000000    49.59000000
   C     48.48000000    68.00000000    49.24000000
   C     47.91000000    68.25000000    47.86000000
   O     46.80000000    67.79000000    47.59000000
   C     47.43000000    67.93000000    50.35000000
   H     50.39000000    68.50000000    49.90000000
   H     48.83000000    66.98000000    49.10000000
   H     46.83000000    68.82000000    50.54000000
   H     46.85000000    67.01000000    50.30000000
   H     47.98000000    67.75000000    51.28000000
   N     48.61000000    68.74000000    46.83000000
   C     47.93000000    69.12000000    45.61000000
   C     47.82000000    67.92000000    44.68000000
   O     48.76000000    67.13000000    44.64000000
   C     48.58000000    70.34000000    44.98000000
   H     49.57000000    69.03000000    46.97000000
   H     46.91000000    69.41000000    45.86000000
   H     49.62000000    70.14000000    44.72000000
   H     47.99000000    70.75000000    44.16000000
   H     48.66000000    71.06000000    45.80000000
   N     46.81000000    67.91000000    43.80000000
   C     46.58000000    67.01000000    42.69000000
   C     46.95000000    65.56000000    42.99000000
   O     47.54000000    64.96000000    42.09000000
   C     47.04000000    67.48000000    41.32000000
   C     48.41000000    68.17000000    41.38000000
   C     48.88000000    68.69000000    40.03000000
   O     48.53000000    69.82000000    39.62000000
   O     49.71000000    68.02000000    39.38000000
   H     46.29000000    68.77000000    43.79000000
   H     45.50000000    66.91000000    42.61000000
   H     46.29000000    68.22000000    41.04000000
   H     46.97000000    66.71000000    40.55000000
   H     49.14000000    67.52000000    41.86000000
   H     48.29000000    69.01000000    42.06000000
   N     46.63000000    64.95000000    44.14000000
   C     47.17000000    63.66000000    44.51000000
   H     48.11300000    63.80000000    45.03900000
   H     46.46400000    63.14200000    45.15900000
   H     47.34200000    63.06600000    43.61200000
   H     46.10000000    65.54000000    44.76000000
  Ca     50.36000000    69.97000000    37.51000000
   O     50.36000000    68.26000000    35.39000000
   H     49.77000000    68.64000000    34.75000000
   H     51.08000000    67.91000000    34.87000000
   O     52.04000000    71.74000000    39.15000000
   H     52.34000000    72.52000000    38.69000000
   H     52.82000000    71.39000000    39.58000000
   O     47.87000000    69.37000000    36.88000000
   H     47.23000000    69.45000000    37.58000000
   H     47.38000000    68.98000000    36.15000000
   O     52.56000000    71.09000000    36.01000000
   H     52.55000000    70.81000000    35.10000000
   H     53.29000000    71.71000000    36.07000000
   O     48.91000000    72.35000000    37.80000000
   H     48.86000000    73.08000000    38.42000000
   H     48.16000000    72.47000000    37.22000000
   O     49.34000000    71.29000000    35.07000000
   H     49.30000000    72.24000000    34.97000000
   H     49.38000000    70.96000000    34.18000000

Ca 1.00



