%chk=loop4.cluster51.chk
%nprocshared=20
%mem=10GB
%nosave
#b3lyp/svp scf=(tight,noincore,xqc) Test 
#IOP(5/87=12) Density=Current Pop=(MK,readradii) iop(6/33=2) iop(6/42=6)

loop4.cluster51 

   -3  1 
   C     48.47000000    37.32000000    45.72000000
   C     49.18000000    37.28000000    47.06000000
   O     50.35000000    37.64000000    47.17000000
   H     47.57300000    37.93400000    45.80300000
   H     49.13400000    37.74700000    44.96900000
   H     48.19100000    36.30800000    45.42600000
   N     48.46000000    37.05000000    48.16000000
   C     48.97000000    37.14000000    49.51000000
   C     49.62000000    38.46000000    49.93000000
   O     50.55000000    38.60000000    50.72000000
   C     49.49000000    35.79000000    49.98000000
   C     50.62000000    35.23000000    49.13000000
   O     50.46000000    34.14000000    48.54000000
   O     51.73000000    35.81000000    49.05000000
   H     47.45000000    36.95000000    48.16000000
   H     48.05000000    37.22000000    50.09000000
   H     48.61000000    35.14000000    50.00000000
   H     49.71000000    35.80000000    51.05000000
   N     49.05000000    39.51000000    49.34000000
   C     49.14000000    40.94000000    49.57000000
   C     48.81000000    41.42000000    50.97000000
   O     48.39000000    42.58000000    51.06000000
   C     50.45000000    41.46000000    48.97000000
   C     51.42000000    41.78000000    50.11000000
   C     50.23000000    42.68000000    48.08000000
   C     52.85000000    42.06000000    49.65000000
   H     48.32000000    39.22000000    48.71000000
   H     48.38000000    41.34000000    48.90000000
   H     50.85000000    40.58000000    48.47000000
   H     51.46000000    40.97000000    50.84000000
   H     51.13000000    42.68000000    50.65000000
   H     51.16000000    42.95000000    47.59000000
   H     49.59000000    42.31000000    47.28000000
   H     49.65000000    43.48000000    48.54000000
   H     53.37000000    41.13000000    49.41000000
   H     52.83000000    42.59000000    48.70000000
   H     53.42000000    42.71000000    50.31000000
   N     48.79000000    40.60000000    52.02000000
   C     48.07000000    40.85000000    53.26000000
   C     48.82000000    40.50000000    54.54000000
   O     48.66000000    41.20000000    55.54000000
   C     46.84000000    39.95000000    53.23000000
   C     46.02000000    40.08000000    51.95000000
   O     45.76000000    41.24000000    51.56000000
   O     45.51000000    39.07000000    51.42000000
   H     49.30000000    39.75000000    51.82000000
   H     47.73000000    41.89000000    53.27000000
   H     46.31000000    40.06000000    54.17000000
   H     47.29000000    38.95000000    53.24000000
   N     49.80000000    39.60000000    54.58000000
   C     50.50000000    38.78000000    53.61000000
   C     51.43000000    37.68000000    54.08000000
   O     51.06000000    36.51000000    54.14000000
   H     50.30000000    39.62000000    55.46000000
   H     51.05000000    39.38000000    52.88000000
   H     49.75000000    38.25000000    53.01000000
   N     52.74000000    37.93000000    54.24000000
   C     53.40000000    39.21000000    54.35000000
   C     54.25000000    39.52000000    53.12000000
   O     54.63000000    38.63000000    52.37000000
   C     54.31000000    39.13000000    55.57000000
   C     55.09000000    40.40000000    55.88000000
   O     54.51000000    41.31000000    56.51000000
   O     56.26000000    40.51000000    55.44000000
   H     53.39000000    37.16000000    54.20000000
   H     52.62000000    39.96000000    54.52000000
   H     55.01000000    38.30000000    55.44000000
   H     53.76000000    38.89000000    56.48000000
   N     54.28000000    40.78000000    52.68000000
   C     53.72000000    42.01000000    53.22000000
   C     54.75000000    43.12000000    53.10000000
   O     54.42000000    44.30000000    53.02000000
   H     54.81000000    40.93000000    51.84000000
   H     53.49000000    41.99000000    54.28000000
   H     52.85000000    42.33000000    52.64000000
   N     56.04000000    42.77000000    53.13000000
   C     57.08000000    43.78000000    53.17000000
   C     57.50000000    44.36000000    51.83000000
   O     58.37000000    45.23000000    51.77000000
   C     58.29000000    43.14000000    53.84000000
   C     58.93000000    41.98000000    53.06000000
   C     60.26000000    41.60000000    53.68000000
   N     60.28000000    40.55000000    54.51000000
   O     61.33000000    42.19000000    53.51000000
   H     56.30000000    41.80000000    53.05000000
   H     56.75000000    44.55000000    53.86000000
   H     58.01000000    42.71000000    54.80000000
   H     59.05000000    43.87000000    54.10000000
   H     59.00000000    42.24000000    52.01000000
   H     58.33000000    41.08000000    53.04000000
   H     59.47000000    39.95000000    54.53000000
   H     61.14000000    40.33000000    54.98000000
   N     56.90000000    43.96000000    50.71000000
   C     57.44000000    44.23000000    49.39000000
   C     58.75000000    43.51000000    49.07000000
   O     58.93000000    42.40000000    49.56000000
   C     56.40000000    44.13000000    48.29000000
   C     56.92000000    44.59000000    46.93000000
   C     55.17000000    44.98000000    48.62000000
   H     56.05000000    43.42000000    50.78000000
   H     57.62000000    45.31000000    49.38000000
   H     56.19000000    43.06000000    48.31000000
   H     57.52000000    43.77000000    46.53000000
   H     56.10000000    44.71000000    46.22000000
   H     57.49000000    45.51000000    46.82000000
   H     55.45000000    46.02000000    48.73000000
   H     54.43000000    44.83000000    47.84000000
   H     54.57000000    44.67000000    49.48000000
   N     59.72000000    44.26000000    48.56000000
   C     61.08000000    43.86000000    48.26000000
   C     61.37000000    42.73000000    47.28000000
   O     62.28000000    42.84000000    46.46000000
   C     61.78000000    43.70000000    49.61000000
   C     61.61000000    44.83000000    50.61000000
   N     61.49000000    44.56000000    51.91000000
   O     61.60000000    46.00000000    50.23000000
   H     59.44000000    45.18000000    48.24000000
   H     61.50000000    44.77000000    47.84000000
   H     62.87000000    43.66000000    49.50000000
   H     61.40000000    42.75000000    49.97000000
   H     61.43000000    43.63000000    52.30000000
   H     61.18000000    45.35000000    52.45000000
   N     60.52000000    41.72000000    47.12000000
   C     60.70000000    40.65000000    46.16000000
   C     59.35000000    40.07000000    45.76000000
   O     58.45000000    39.94000000    46.59000000
   C     61.70000000    39.61000000    46.65000000
   C     61.37000000    39.01000000    48.00000000
   C     60.53000000    37.91000000    48.12000000
   C     61.96000000    39.51000000    49.16000000
   C     60.33000000    37.25000000    49.35000000
   C     61.63000000    39.05000000    50.44000000
   C     60.89000000    37.85000000    50.49000000
   O     60.84000000    37.25000000    51.72000000
   H     59.77000000    41.64000000    47.79000000
   H     61.24000000    41.09000000    45.32000000
   H     62.67000000    40.10000000    46.57000000
   H     61.65000000    38.86000000    45.86000000
   H     59.94000000    37.54000000    47.29000000
   H     62.59000000    40.38000000    49.04000000
   H     59.75000000    36.35000000    49.44000000
   H     62.04000000    39.50000000    51.33000000
   H     61.34000000    37.68000000    52.42000000
   N     59.24000000    39.64000000    44.50000000
   C     58.18000000    38.82000000    43.96000000
   C     56.76000000    39.36000000    44.06000000
   O     55.91000000    38.48000000    44.06000000
   C     58.35000000    37.38000000    44.43000000
   C     59.71000000    36.69000000    44.32000000
   C     60.35000000    36.74000000    42.94000000
   O     59.66000000    36.59000000    41.91000000
   O     61.59000000    36.88000000    43.02000000
   H     59.96000000    39.92000000    43.84000000
   H     58.39000000    38.74000000    42.89000000
   H     57.57000000    36.80000000    43.95000000
   H     58.02000000    37.29000000    45.46000000
   H     59.51000000    35.63000000    44.52000000
   H     60.40000000    37.15000000    45.03000000
   N     56.47000000    40.67000000    44.10000000
   C     55.10000000    41.12000000    43.99000000
   C     54.93000000    42.03000000    42.78000000
   O     54.20000000    41.73000000    41.84000000
   C     54.65000000    41.77000000    45.29000000
   C     54.87000000    41.07000000    46.63000000
   C     54.21000000    39.70000000    46.68000000
   O     54.92000000    38.74000000    47.04000000
   O     52.96000000    39.57000000    46.63000000
   H     57.24000000    41.29000000    44.31000000
   H     54.44000000    40.27000000    43.80000000
   H     53.58000000    41.72000000    45.10000000
   H     55.01000000    42.80000000    45.30000000
   H     54.49000000    41.71000000    47.43000000
   H     55.94000000    40.93000000    46.79000000
   N     55.81000000    43.03000000    42.67000000
   C     55.92000000    43.88000000    41.50000000
   H     56.97200000    44.03100000    41.25900000
   H     55.41900000    43.40500000    40.65700000
   H     55.45300000    44.84300000    41.70500000
   H     56.43000000    43.08000000    43.46000000
  Ca     52.92000000    37.09000000    47.19000000
   O     53.41000000    38.16000000    49.48000000
   H     54.17000000    37.94000000    50.02000000
   H     52.70000000    38.28000000    50.11000000
   O     51.90000000    34.96000000    45.78000000
   H     51.24000000    34.92000000    45.09000000
   H     52.38000000    34.14000000    45.71000000
   O     54.55000000    35.05000000    47.28000000
   H     55.21000000    34.62000000    46.74000000
   H     54.40000000    34.43000000    48.00000000
   O     53.96000000    36.80000000    44.79000000
   H     54.23000000    36.10000000    44.19000000
   H     54.47000000    37.56000000    44.51000000

Ca 1.00



