%chk=loop4.cluster93.chk
%nprocshared=20
%mem=10GB
%nosave
#b3lyp/svp scf=(tight,noincore,xqc) Test 
#IOP(5/87=12) Density=Current Pop=(MK,readradii) iop(6/33=2) iop(6/42=6)

loop4.cluster93 

   -3  1 
   C     45.28000000    54.66000000    60.63000000
   C     45.95000000    54.51000000    61.98000000
   O     46.85000000    53.70000000    62.18000000
   H     44.38500000    55.27300000    60.73500000
   H     45.96800000    55.14000000    59.93400000
   H     45.00400000    53.67700000    60.25000000
   N     45.34000000    55.08000000    63.03000000
   C     45.83000000    55.24000000    64.38000000
   C     47.26000000    55.75000000    64.37000000
   O     48.21000000    55.04000000    64.68000000
   C     45.44000000    54.21000000    65.44000000
   C     45.42000000    52.72000000    65.11000000
   O     44.32000000    52.17000000    64.90000000
   O     46.51000000    52.14000000    64.93000000
   H     44.63000000    55.77000000    62.86000000
   H     45.32000000    56.07000000    64.87000000
   H     44.44000000    54.34000000    65.84000000
   H     46.11000000    54.25000000    66.31000000
   N     47.52000000    57.02000000    64.02000000
   C     48.83000000    57.63000000    64.14000000
   C     49.49000000    57.71000000    65.51000000
   O     50.60000000    57.22000000    65.72000000
   C     49.77000000    57.31000000    62.98000000
   C     50.78000000    58.42000000    62.67000000
   C     49.07000000    56.83000000    61.71000000
   C     52.05000000    57.96000000    61.96000000
   H     46.76000000    57.61000000    63.72000000
   H     48.46000000    58.65000000    64.10000000
   H     50.36000000    56.47000000    63.33000000
   H     51.15000000    58.66000000    63.66000000
   H     50.27000000    59.21000000    62.12000000
   H     49.74000000    56.75000000    60.86000000
   H     48.58000000    55.86000000    61.71000000
   H     48.29000000    57.55000000    61.46000000
   H     52.55000000    58.80000000    61.49000000
   H     52.69000000    57.45000000    62.68000000
   H     51.87000000    57.12000000    61.28000000
   N     48.66000000    58.09000000    66.48000000
   C     48.95000000    57.85000000    67.88000000
   C     48.35000000    56.50000000    68.28000000
   O     47.13000000    56.41000000    68.43000000
   C     48.34000000    58.91000000    68.79000000
   C     46.97000000    59.52000000    68.51000000
   O     46.05000000    59.22000000    69.29000000
   O     46.67000000    60.31000000    67.59000000
   H     47.78000000    58.52000000    66.24000000
   H     50.02000000    57.79000000    68.03000000
   H     49.02000000    59.76000000    68.87000000
   H     48.31000000    58.62000000    69.84000000
   N     49.14000000    55.43000000    68.36000000
   C     50.58000000    55.40000000    68.31000000
   C     51.20000000    56.03000000    69.55000000
   O     50.95000000    55.66000000    70.69000000
   H     48.73000000    54.51000000    68.49000000
   H     51.00000000    55.77000000    67.37000000
   H     50.88000000    54.35000000    68.35000000
   N     52.25000000    56.86000000    69.50000000
   C     52.95000000    57.42000000    68.37000000
   C     53.84000000    56.36000000    67.74000000
   O     54.48000000    55.58000000    68.44000000
   C     53.70000000    58.70000000    68.72000000
   C     54.77000000    58.38000000    69.76000000
   O     54.34000000    57.94000000    70.85000000
   O     55.96000000    58.69000000    69.56000000
   H     52.54000000    57.14000000    70.43000000
   H     52.19000000    57.81000000    67.69000000
   H     52.97000000    59.45000000    69.03000000
   H     54.12000000    59.05000000    67.78000000
   N     54.00000000    56.26000000    66.42000000
   C     53.71000000    57.36000000    65.51000000
   C     54.93000000    58.08000000    64.95000000
   O     54.77000000    59.14000000    64.34000000
   H     54.36000000    55.41000000    66.03000000
   H     53.02000000    58.13000000    65.84000000
   H     53.26000000    56.97000000    64.60000000
   N     56.11000000    57.54000000    65.28000000
   C     57.42000000    58.00000000    64.87000000
   C     57.74000000    57.60000000    63.44000000
   O     58.40000000    58.31000000    62.68000000
   C     58.48000000    57.63000000    65.89000000
   C     58.87000000    56.16000000    66.04000000
   C     59.89000000    55.80000000    67.11000000
   N     60.24000000    54.52000000    67.19000000
   O     60.35000000    56.61000000    67.91000000
   H     56.05000000    56.67000000    65.79000000
   H     57.33000000    59.08000000    64.71000000
   H     58.10000000    57.98000000    66.85000000
   H     59.36000000    58.24000000    65.68000000
   H     59.26000000    55.76000000    65.10000000
   H     57.99000000    55.52000000    66.14000000
   H     59.67000000    53.83000000    66.73000000
   H     60.92000000    54.25000000    67.89000000
   N     57.28000000    56.42000000    63.02000000
   C     57.60000000    55.79000000    61.76000000
   C     58.28000000    54.43000000    61.84000000
   O     57.89000000    53.52000000    62.56000000
   C     56.35000000    55.81000000    60.88000000
   C     56.70000000    55.59000000    59.41000000
   C     55.50000000    57.08000000    60.92000000
   H     56.69000000    55.88000000    63.64000000
   H     58.33000000    56.42000000    61.26000000
   H     55.69000000    55.01000000    61.21000000
   H     57.37000000    54.74000000    59.35000000
   H     55.79000000    55.50000000    58.81000000
   H     57.22000000    56.40000000    58.91000000
   H     54.72000000    56.97000000    60.17000000
   H     55.11000000    57.14000000    61.94000000
   H     56.17000000    57.90000000    60.63000000
   N     59.36000000    54.35000000    61.06000000
   C     60.06000000    53.12000000    60.76000000
   C     59.27000000    52.06000000    60.01000000
   O     59.84000000    51.58000000    59.03000000
   C     60.76000000    52.47000000    61.95000000
   C     61.71000000    53.32000000    62.78000000
   N     61.35000000    53.69000000    64.01000000
   O     62.68000000    53.79000000    62.20000000
   H     59.84000000    55.21000000    60.85000000
   H     60.86000000    53.45000000    60.08000000
   H     61.34000000    51.57000000    61.70000000
   H     60.01000000    52.07000000    62.62000000
   H     60.46000000    53.38000000    64.38000000
   H     61.76000000    54.50000000    64.44000000
   N     58.03000000    51.72000000    60.36000000
   C     57.20000000    50.85000000    59.55000000
   C     55.69000000    51.05000000    59.52000000
   O     55.18000000    51.63000000    60.48000000
   C     57.46000000    49.43000000    60.04000000
   C     57.57000000    49.30000000    61.54000000
   C     56.35000000    49.10000000    62.20000000
   C     58.81000000    49.04000000    62.13000000
   C     56.40000000    48.89000000    63.58000000
   C     58.89000000    49.04000000    63.53000000
   C     57.66000000    48.93000000    64.21000000
   O     57.76000000    48.93000000    65.57000000
   H     57.68000000    52.06000000    61.25000000
   H     57.44000000    50.85000000    58.48000000
   H     58.40000000    49.06000000    59.64000000
   H     56.77000000    48.67000000    59.67000000
   H     55.41000000    49.11000000    61.66000000
   H     59.72000000    49.19000000    61.57000000
   H     55.52000000    48.80000000    64.21000000
   H     59.84000000    49.09000000    64.03000000
   H     58.69000000    48.72000000    65.69000000
   N     54.96000000    50.56000000    58.51000000
   C     53.54000000    50.43000000    58.30000000
   C     52.72000000    51.68000000    58.03000000
   O     51.71000000    51.61000000    57.34000000
   C     52.78000000    49.55000000    59.30000000
   C     53.46000000    48.19000000    59.36000000
   C     52.72000000    47.17000000    60.21000000
   O     52.24000000    46.15000000    59.68000000
   O     52.74000000    47.33000000    61.45000000
   H     55.55000000    50.18000000    57.78000000
   H     53.47000000    49.89000000    57.36000000
   H     51.77000000    49.41000000    58.93000000
   H     52.82000000    49.94000000    60.32000000
   H     54.46000000    48.29000000    59.79000000
   H     53.58000000    47.82000000    58.34000000
   N     53.04000000    52.80000000    58.69000000
   C     52.25000000    54.00000000    58.47000000
   C     52.67000000    54.70000000    57.19000000
   O     51.83000000    55.09000000    56.39000000
   C     52.32000000    54.93000000    59.68000000
   C     52.27000000    54.20000000    61.02000000
   C     50.92000000    53.56000000    61.32000000
   O     50.49000000    53.76000000    62.47000000
   O     50.34000000    52.80000000    60.51000000
   H     53.75000000    52.96000000    59.38000000
   H     51.19000000    53.79000000    58.31000000
   H     51.59000000    55.73000000    59.61000000
   H     53.32000000    55.34000000    59.78000000
   H     52.46000000    55.07000000    61.65000000
   H     53.11000000    53.53000000    61.22000000
   N     54.00000000    54.78000000    57.05000000
   C     54.60000000    55.48000000    55.93000000
   H     55.60900000    55.10300000    55.76500000
   H     54.00000000    55.31600000    55.03500000
   H     54.64300000    56.54700000    56.14800000
   H     54.60000000    54.51000000    57.81000000
  Ca     48.65000000    52.58000000    63.73000000
   O     51.09000000    51.17000000    63.73000000
   H     51.26000000    50.34000000    64.18000000
   H     51.97000000    51.54000000    63.58000000
   O     48.55000000    50.88000000    61.55000000
   H     49.01000000    50.08000000    61.81000000
   H     49.02000000    51.19000000    60.78000000
   O     49.37000000    52.41000000    66.30000000
   H     48.75000000    51.85000000    66.76000000
   H     50.10000000    52.52000000    66.91000000
   O     48.54000000    49.99000000    64.77000000
   H     48.16000000    49.18000000    64.42000000
   H     48.97000000    49.72000000    65.58000000

Ca 1.00



