%chk=loop3.cluster195.chk
%nprocshared=20
%mem=10GB
%nosave
#b3lyp/svp scf=(tight,noincore,xqc) Test 
#IOP(5/87=12) Density=Current Pop=(MK,readradii) iop(6/33=2) iop(6/42=6)

loop3.cluster195 

   0  1 
   C     64.21000000    30.61000000    59.90000000
   C     64.80000000    29.88000000    61.09000000
   O     64.54000000    28.70000000    61.35000000
   H     63.31200000    31.14400000    60.21100000
   H     64.93900000    31.32100000    59.51200000
   H     63.95300000    29.89100000    59.12200000
   N     65.58000000    30.54000000    61.95000000
   C     66.05000000    29.91000000    63.17000000
   C     66.06000000    30.96000000    64.27000000
   O     66.51000000    32.09000000    64.08000000
   C     67.52000000    29.52000000    63.02000000
   C     67.98000000    28.61000000    64.15000000
   O     67.90000000    27.38000000    63.95000000
   O     68.26000000    29.14000000    65.24000000
   H     65.87000000    31.50000000    61.81000000
   H     65.47000000    29.04000000    63.48000000
   H     68.13000000    30.41000000    63.03000000
   H     67.48000000    28.96000000    62.08000000
   N     65.75000000    30.65000000    65.53000000
   C     65.59000000    31.68000000    66.54000000
   C     66.86000000    31.79000000    67.36000000
   O     66.83000000    32.76000000    68.13000000
   C     64.34000000    31.32000000    67.34000000
   C     63.15000000    31.10000000    66.42000000
   C     61.84000000    30.85000000    67.17000000
   C     61.31000000    32.02000000    67.98000000
   N     59.89000000    31.82000000    68.32000000
   H     65.87000000    29.70000000    65.87000000
   H     65.42000000    32.64000000    66.07000000
   H     64.14000000    32.11000000    68.06000000
   H     64.50000000    30.34000000    67.80000000
   H     63.32000000    30.17000000    65.87000000
   H     63.02000000    31.91000000    65.71000000
   H     62.04000000    29.99000000    67.81000000
   H     61.10000000    30.60000000    66.41000000
   H     61.47000000    33.00000000    67.52000000
   H     61.92000000    32.08000000    68.89000000
   H     59.55000000    32.71000000    68.67000000
   H     59.26000000    31.60000000    67.57000000
   H     59.67000000    31.21000000    69.10000000
   N     67.90000000    30.95000000    67.31000000
   C     69.15000000    31.16000000    68.01000000
   C     70.29000000    31.52000000    67.07000000
   O     71.34000000    31.94000000    67.55000000
   C     69.51000000    30.06000000    69.01000000
   C     69.43000000    28.70000000    68.33000000
   O     70.33000000    28.41000000    67.51000000
   O     68.44000000    27.97000000    68.48000000
   H     67.86000000    30.18000000    66.66000000
   H     69.10000000    32.09000000    68.58000000
   H     68.91000000    30.13000000    69.92000000
   H     70.49000000    30.29000000    69.42000000
   N     70.06000000    31.21000000    65.79000000
   C     71.05000000    31.46000000    64.76000000
   C     71.96000000    30.28000000    64.44000000
   O     72.67000000    30.29000000    63.44000000
   H     69.20000000    30.75000000    65.51000000
   H     71.65000000    32.28000000    65.16000000
   H     70.50000000    31.80000000    63.89000000
   N     72.03000000    29.16000000    65.17000000
   C     72.49000000    27.86000000    64.70000000
   C     71.29000000    27.26000000    63.99000000
   O     70.42000000    26.65000000    64.61000000
   C     72.92000000    26.99000000    65.88000000
   C     73.23000000    25.59000000    65.37000000
   N     74.41000000    25.53000000    64.76000000
   O     72.54000000    24.58000000    65.55000000
   H     71.48000000    29.17000000    66.01000000
   H     73.31000000    27.81000000    63.99000000
   H     72.22000000    26.92000000    66.71000000
   H     73.82000000    27.40000000    66.33000000
   H     74.93000000    26.35000000    64.47000000
   H     74.88000000    24.64000000    64.63000000
   N     71.35000000    27.56000000    62.69000000
   C     70.40000000    27.18000000    61.66000000
   C     69.92000000    25.74000000    61.58000000
   O     70.27000000    25.03000000    60.63000000
   H     72.23000000    28.01000000    62.47000000
   H     70.75000000    27.36000000    60.64000000
   H     69.46000000    27.72000000    61.77000000
   N     69.28000000    25.27000000    62.64000000
   C     69.13000000    23.86000000    62.95000000
   C     68.07000000    23.73000000    64.03000000
   O     67.93000000    24.56000000    64.92000000
   C     70.44000000    23.24000000    63.41000000
   C     70.84000000    21.79000000    63.28000000
   C     70.72000000    21.11000000    62.06000000
   C     71.31000000    21.11000000    64.42000000
   C     71.08000000    19.76000000    62.01000000
   C     71.60000000    19.74000000    64.41000000
   C     71.47000000    19.07000000    63.18000000
   O     71.89000000    17.77000000    63.10000000
   H     69.10000000    25.90000000    63.41000000
   H     68.80000000    23.49000000    61.97000000
   H     70.56000000    23.61000000    64.43000000
   H     71.33000000    23.72000000    63.00000000
   H     70.36000000    21.66000000    61.21000000
   H     71.37000000    21.72000000    65.31000000
   H     70.91000000    19.16000000    61.13000000
   H     71.91000000    19.16000000    65.26000000
   H     72.15000000    17.44000000    63.97000000
   N     67.44000000    22.55000000    64.09000000
   C     66.32000000    22.07000000    64.87000000
   C     66.53000000    21.98000000    66.38000000
   O     67.56000000    22.43000000    66.87000000
   C     65.04000000    22.78000000    64.43000000
   C     64.73000000    22.54000000    62.96000000
   C     64.85000000    24.22000000    64.88000000
   C     63.31000000    22.80000000    62.45000000
   H     67.51000000    22.01000000    63.24000000
   H     66.21000000    21.01000000    64.63000000
   H     64.25000000    22.18000000    64.89000000
   H     65.02000000    21.53000000    62.65000000
   H     65.44000000    23.10000000    62.36000000
   H     63.78000000    24.44000000    64.79000000
   H     65.19000000    24.36000000    65.91000000
   H     65.20000000    24.97000000    64.18000000
   H     63.22000000    22.29000000    61.49000000
   H     62.62000000    22.32000000    63.13000000
   H     63.22000000    23.89000000    62.40000000
   N     65.64000000    21.21000000    67.03000000
   C     65.66000000    20.88000000    68.44000000
   C     65.19000000    19.48000000    68.80000000
   O     65.61000000    18.92000000    69.82000000
   C     64.77000000    21.81000000    69.26000000
   O     63.43000000    21.70000000    68.83000000
   H     64.95000000    20.72000000    66.49000000
   H     66.71000000    20.95000000    68.73000000
   H     65.20000000    22.81000000    69.20000000
   H     64.80000000    21.56000000    70.32000000
   H     62.83000000    22.32000000    69.26000000
   N     64.39000000    18.86000000    67.94000000
   C     64.05000000    17.45000000    67.98000000
   C     63.53000000    16.93000000    69.31000000
   O     64.18000000    16.15000000    70.01000000
   C     65.23000000    16.68000000    67.41000000
   H     64.10000000    19.32000000    67.08000000
   H     63.24000000    17.30000000    67.27000000
   H     65.43000000    17.10000000    66.42000000
   H     66.13000000    16.76000000    68.02000000
   H     64.90000000    15.64000000    67.31000000
   N     62.48000000    17.54000000    69.87000000
   C     61.64000000    18.55000000    69.27000000
   C     60.40000000    17.91000000    68.66000000
   O     59.79000000    17.01000000    69.22000000
   C     61.20000000    19.54000000    70.36000000
   H     62.23000000    17.23000000    70.80000000
   H     62.09000000    19.20000000    68.51000000
   H     61.98000000    20.28000000    70.54000000
   H     60.37000000    20.13000000    70.00000000
   H     60.83000000    19.06000000    71.26000000
   N     59.76000000    18.41000000    67.60000000
   C     60.22000000    19.41000000    66.66000000
   C     60.13000000    18.91000000    65.23000000
   O     61.04000000    19.13000000    64.43000000
   C     59.41000000    20.69000000    66.81000000
   C     60.28000000    21.84000000    66.31000000
   C     59.59000000    23.19000000    66.46000000
   O     58.64000000    23.40000000    65.69000000
   O     59.92000000    23.97000000    67.38000000
   H     58.78000000    18.18000000    67.50000000
   H     61.28000000    19.60000000    66.84000000
   H     59.26000000    20.86000000    67.88000000
   H     58.40000000    20.70000000    66.41000000
   H     60.53000000    21.71000000    65.25000000
   H     61.24000000    21.87000000    66.82000000
   N     59.04000000    18.29000000    64.77000000
   C     58.79000000    17.86000000    63.41000000
   H     58.01600000    18.48800000    62.96800000
   H     59.70600000    17.94800000    62.82600000
   H     58.45800000    16.82200000    63.41200000
   H     58.45000000    17.88000000    65.48000000
  Ca     68.56000000    26.55000000    66.45000000
   O     67.49000000    24.66000000    68.27000000
   H     67.73000000    23.79000000    67.93000000
   H     67.42000000    24.54000000    69.21000000
   O     65.62000000    27.77000000    66.48000000
   H     65.47000000    27.89000000    67.42000000
   H     64.75000000    27.73000000    66.10000000
   O     70.35000000    24.69000000    67.15000000
   H     71.17000000    24.77000000    66.65000000
   H     70.48000000    23.91000000    67.69000000

Ca 1.00



