%chk=loop1.cluster114.chk
%nprocshared=20
%mem=10GB
%nosave
#b3lyp/svp scf=(tight,noincore,xqc) Test 
#IOP(5/87=12) Density=Current Pop=(MK,readradii) iop(6/33=2) iop(6/42=6)

loop1.cluster114 

   0  1 
   C     39.29000000    41.86000000    41.35000000
   C     40.54000000    42.28000000    40.58000000
   O     41.15000000    41.38000000    40.02000000
   H     38.45700000    41.74700000    40.65600000
   H     39.47400000    40.91100000    41.85300000
   H     39.04500000    42.62200000    42.08900000
   N     40.82000000    43.58000000    40.47000000
   C     41.85000000    44.22000000    39.67000000
   C     41.81000000    43.79000000    38.21000000
   O     42.80000000    43.76000000    37.49000000
   C     43.18000000    44.02000000    40.39000000
   C     44.19000000    44.94000000    39.73000000
   O     43.93000000    46.16000000    39.85000000
   O     45.16000000    44.46000000    39.10000000
   H     40.29000000    44.21000000    41.06000000
   H     41.65000000    45.29000000    39.77000000
   H     43.53000000    43.00000000    40.31000000
   H     43.08000000    44.26000000    41.45000000
   N     40.60000000    43.52000000    37.72000000
   C     40.29000000    42.95000000    36.42000000
   C     40.47000000    43.97000000    35.31000000
   O     41.00000000    43.60000000    34.26000000
   C     38.91000000    42.31000000    36.37000000
   C     38.89000000    40.95000000    37.06000000
   C     37.44000000    40.49000000    37.09000000
   C     36.56000000    41.11000000    38.18000000
   N     35.17000000    40.65000000    37.99000000
   H     39.76000000    43.68000000    38.26000000
   H     41.02000000    42.15000000    36.31000000
   H     38.66000000    42.05000000    35.34000000
   H     38.18000000    43.02000000    36.77000000
   H     39.22000000    41.09000000    38.09000000
   H     39.53000000    40.27000000    36.50000000
   H     37.49000000    39.41000000    37.26000000
   H     37.01000000    40.70000000    36.12000000
   H     36.56000000    42.20000000    38.19000000
   H     36.90000000    40.82000000    39.17000000
   H     35.11000000    39.65000000    38.03000000
   H     34.51000000    41.06000000    38.64000000
   H     34.96000000    41.00000000    37.07000000
   N     40.20000000    45.26000000    35.52000000
   C     39.85000000    46.08000000    34.38000000
   C     40.80000000    47.24000000    34.10000000
   O     40.70000000    47.93000000    33.09000000
   C     38.43000000    46.54000000    34.69000000
   C     37.71000000    47.37000000    33.63000000
   O     37.25000000    48.51000000    33.84000000
   O     37.57000000    46.77000000    32.54000000
   H     39.67000000    45.57000000    36.32000000
   H     39.86000000    45.53000000    33.43000000
   H     38.52000000    47.07000000    35.63000000
   H     37.88000000    45.62000000    34.86000000
   N     41.78000000    47.44000000    34.98000000
   C     42.88000000    48.36000000    34.80000000
   C     42.67000000    49.65000000    35.58000000
   O     43.60000000    50.10000000    36.24000000
   H     41.99000000    46.72000000    35.67000000
   H     43.00000000    48.61000000    33.74000000
   H     43.81000000    47.84000000    35.03000000
   N     41.44000000    50.17000000    35.59000000
   C     41.18000000    51.53000000    36.01000000
   C     40.52000000    51.53000000    37.38000000
   O     40.00000000    50.58000000    37.96000000
   C     40.21000000    52.22000000    35.06000000
   C     40.59000000    52.15000000    33.59000000
   O     41.40000000    53.00000000    33.16000000
   O     40.17000000    51.24000000    32.85000000
   H     40.72000000    49.76000000    35.00000000
   H     42.04000000    52.20000000    36.08000000
   H     40.18000000    53.25000000    35.41000000
   H     39.20000000    51.86000000    35.27000000
   N     40.55000000    52.71000000    38.01000000
   C     39.84000000    53.00000000    39.24000000
   C     40.37000000    52.53000000    40.59000000
   O     40.43000000    53.38000000    41.47000000
   H     40.83000000    53.51000000    37.46000000
   H     38.81000000    52.68000000    39.09000000
   H     39.84000000    54.09000000    39.26000000
   N     40.59000000    51.23000000    40.82000000
   C     41.04000000    50.71000000    42.09000000
   C     40.13000000    51.08000000    43.26000000
   O     38.92000000    51.18000000    43.06000000
   C     41.55000000    49.27000000    42.08000000
   C     40.42000000    48.28000000    41.85000000
   O     42.42000000    49.08000000    40.99000000
   H     40.44000000    50.66000000    40.00000000
   H     41.96000000    51.23000000    42.35000000
   H     42.11000000    48.99000000    42.98000000
   H     43.06000000    48.49000000    41.40000000
   H     39.72000000    48.46000000    42.67000000
   H     39.94000000    48.50000000    40.89000000
   H     40.71000000    47.23000000    41.85000000
   N     40.68000000    51.16000000    44.47000000
   C     39.92000000    51.56000000    45.64000000
   C     40.49000000    52.75000000    46.40000000
   O     39.97000000    53.21000000    47.41000000
   C     39.64000000    50.41000000    46.60000000
   C     40.87000000    49.56000000    46.89000000
   C     38.56000000    49.55000000    45.95000000
   C     40.54000000    48.46000000    47.89000000
   H     41.64000000    50.86000000    44.57000000
   H     38.94000000    51.91000000    45.33000000
   H     39.17000000    50.81000000    47.49000000
   H     41.68000000    50.17000000    47.29000000
   H     41.10000000    49.03000000    45.97000000
   H     38.91000000    49.20000000    44.98000000
   H     38.31000000    48.58000000    46.39000000
   H     37.64000000    50.10000000    45.74000000
   H     41.31000000    48.54000000    48.66000000
   H     39.69000000    48.67000000    48.53000000
   H     40.52000000    47.48000000    47.40000000
   N     41.60000000    53.28000000    45.88000000
   C     42.48000000    54.22000000    46.54000000
   C     43.88000000    53.64000000    46.72000000
   O     44.32000000    52.78000000    45.96000000
   C     42.40000000    55.55000000    45.80000000
   C     43.00000000    55.51000000    44.39000000
   O     41.06000000    55.95000000    45.69000000
   H     41.91000000    52.87000000    45.01000000
   H     42.06000000    54.42000000    47.53000000
   H     42.97000000    56.22000000    46.44000000
   H     40.64000000    55.44000000    44.99000000
   H     44.08000000    55.37000000    44.41000000
   H     42.49000000    54.75000000    43.81000000
   H     43.04000000    56.51000000    43.96000000
   N     44.64000000    54.16000000    47.69000000
   C     46.03000000    53.88000000    47.96000000
   C     46.22000000    53.39000000    49.39000000
   O     46.35000000    52.18000000    49.58000000
   C     47.02000000    54.94000000    47.48000000
   C     48.50000000    54.66000000    47.70000000
   O     46.65000000    56.15000000    48.09000000
   H     44.31000000    55.00000000    48.15000000
   H     46.37000000    52.97000000    47.46000000
   H     46.85000000    55.13000000    46.42000000
   H     47.16000000    56.88000000    47.73000000
   H     48.64000000    54.35000000    48.73000000
   H     49.01000000    54.02000000    46.98000000
   H     48.97000000    55.64000000    47.61000000
   N     46.18000000    54.32000000    50.35000000
   C     46.20000000    54.00000000    51.76000000
   C     45.18000000    54.87000000    52.49000000
   O     44.68000000    55.86000000    51.97000000
   C     47.60000000    54.27000000    52.30000000
   C     48.28000000    55.64000000    52.37000000
   C     47.87000000    56.48000000    53.58000000
   C     48.91000000    57.47000000    54.11000000
   N     48.49000000    58.06000000    55.39000000
   H     45.93000000    55.26000000    50.11000000
   H     45.98000000    52.96000000    51.98000000
   H     48.30000000    53.80000000    51.61000000
   H     47.84000000    53.76000000    53.23000000
   H     48.10000000    56.28000000    51.51000000
   H     49.32000000    55.31000000    52.45000000
   H     47.53000000    55.92000000    54.45000000
   H     47.11000000    57.18000000    53.24000000
   H     49.11000000    58.25000000    53.38000000
   H     49.86000000    56.97000000    54.27000000
   H     47.92000000    58.85000000    55.13000000
   H     47.91000000    57.44000000    55.94000000
   H     49.31000000    58.23000000    55.95000000
   N     44.89000000    54.43000000    53.72000000
   C     44.01000000    55.12000000    54.64000000
   C     42.58000000    55.31000000    54.17000000
   O     42.10000000    56.43000000    54.33000000
   C     43.95000000    54.53000000    56.04000000
   C     45.30000000    54.69000000    56.73000000
   C     45.56000000    56.10000000    57.24000000
   O     46.62000000    56.64000000    56.86000000
   O     44.99000000    56.50000000    58.28000000
   H     45.38000000    53.59000000    54.00000000
   H     44.44000000    56.13000000    54.69000000
   H     43.86000000    53.45000000    55.89000000
   H     43.13000000    54.91000000    56.66000000
   H     46.06000000    54.21000000    56.11000000
   H     45.11000000    54.04000000    57.58000000
   N     41.76000000    54.34000000    53.76000000
   C     41.90000000    52.99000000    53.25000000
   H     42.89600000    52.61500000    53.48400000
   H     41.15200000    52.34700000    53.71300000
   H     41.75800000    52.99300000    52.16900000
   H     40.80000000    54.64000000    53.63000000
  Ca     40.74000000    49.56000000    31.09000000
   O     39.56000000    50.79000000    28.98000000
   H     38.69000000    50.39000000    28.84000000
   H     39.54000000    51.59000000    28.45000000
   O     42.13000000    49.26000000    28.82000000
   H     42.03000000    48.43000000    28.36000000
   H     42.46000000    49.86000000    28.15000000
   O     42.61000000    47.51000000    30.96000000
   H     42.66000000    46.78000000    31.58000000
   H     42.86000000    47.12000000    30.12000000
   O     39.65000000    47.33000000    30.09000000
   H     38.76000000    47.43000000    29.77000000
   H     39.86000000    46.41000000    29.93000000
   O     41.42000000    52.31000000    30.47000000
   H     41.23000000    52.50000000    31.39000000
   H     42.05000000    52.98000000    30.21000000
   O     43.31000000    50.37000000    31.91000000
   H     43.39000000    51.27000000    31.60000000
   H     44.04000000    49.90000000    31.51000000
   O     38.12000000    49.47000000    31.36000000
   H     37.84000000    48.85000000    32.03000000
   H     37.32000000    49.93000000    31.11000000

Ca 1.00



