%chk=loop1.cluster16.chk
%nprocshared=20
%mem=10GB
%nosave
#b3lyp/svp scf=(tight,noincore,xqc) Test 
#IOP(5/87=12) Density=Current Pop=(MK,readradii) iop(6/33=2) iop(6/42=6)

loop1.cluster16 

   0  1 
   C     40.63000000    78.35000000    27.03000000
   C     41.07000000    77.77000000    28.37000000
   O     42.19000000    77.26000000    28.46000000
   H     39.76700000    78.99800000    27.18100000
   H     41.44700000    78.92800000    26.59800000
   H     40.36000000    77.53900000    26.35300000
   N     40.26000000    77.85000000    29.42000000
   C     40.52000000    77.42000000    30.77000000
   C     40.41000000    75.92000000    31.02000000
   O     40.94000000    75.44000000    32.02000000
   C     39.78000000    78.30000000    31.77000000
   C     38.26000000    78.28000000    31.75000000
   O     37.56000000    78.85000000    30.88000000
   O     37.67000000    77.67000000    32.67000000
   H     39.39000000    78.33000000    29.22000000
   H     41.57000000    77.64000000    30.95000000
   H     40.08000000    79.34000000    31.67000000
   H     40.21000000    77.94000000    32.71000000
   N     39.77000000    75.16000000    30.13000000
   C     39.64000000    73.73000000    30.32000000
   C     40.95000000    72.97000000    30.27000000
   O     41.93000000    73.32000000    29.62000000
   C     38.59000000    73.15000000    29.37000000
   C     37.17000000    73.67000000    29.59000000
   C     36.10000000    73.11000000    28.66000000
   C     34.70000000    73.31000000    29.24000000
   N     34.16000000    74.63000000    28.91000000
   H     39.38000000    75.70000000    29.37000000
   H     39.25000000    73.67000000    31.34000000
   H     38.66000000    72.09000000    29.61000000
   H     38.82000000    73.26000000    28.31000000
   H     37.05000000    74.75000000    29.63000000
   H     37.05000000    73.33000000    30.62000000
   H     36.19000000    72.03000000    28.54000000
   H     36.31000000    73.43000000    27.64000000
   H     34.67000000    73.12000000    30.31000000
   H     33.95000000    72.62000000    28.85000000
   H     33.85000000    74.61000000    27.95000000
   H     33.28000000    74.83000000    29.37000000
   H     34.75000000    75.37000000    29.26000000
   N     41.23000000    71.88000000    30.99000000
   C     40.49000000    71.22000000    32.05000000
   C     41.01000000    71.49000000    33.46000000
   O     40.26000000    71.25000000    34.40000000
   C     40.47000000    69.73000000    31.72000000
   C     41.82000000    69.02000000    31.71000000
   O     42.04000000    68.33000000    32.73000000
   O     42.62000000    69.22000000    30.77000000
   H     42.01000000    71.36000000    30.61000000
   H     39.45000000    71.52000000    32.00000000
   H     39.90000000    69.59000000    30.80000000
   H     39.86000000    69.25000000    32.48000000
   N     42.20000000    72.01000000    33.76000000
   C     43.29000000    72.54000000    32.95000000
   C     44.62000000    72.58000000    33.69000000
   O     44.79000000    71.93000000    34.71000000
   H     42.45000000    72.02000000    34.73000000
   H     43.07000000    73.56000000    32.61000000
   H     43.43000000    71.91000000    32.08000000
   N     45.57000000    73.45000000    33.34000000
   C     45.59000000    74.30000000    32.16000000
   C     45.46000000    75.79000000    32.42000000
   O     46.19000000    76.26000000    33.29000000
   C     46.76000000    73.89000000    31.27000000
   C     46.81000000    72.46000000    30.75000000
   O     45.81000000    71.72000000    30.75000000
   O     47.76000000    71.95000000    30.11000000
   H     46.41000000    73.24000000    33.85000000
   H     44.77000000    74.01000000    31.50000000
   H     47.69000000    73.93000000    31.84000000
   H     46.64000000    74.62000000    30.46000000
   N     44.56000000    76.52000000    31.75000000
   C     44.50000000    77.97000000    31.68000000
   C     45.17000000    78.53000000    30.43000000
   O     45.02000000    79.72000000    30.19000000
   H     44.06000000    76.01000000    31.05000000
   H     44.98000000    78.44000000    32.54000000
   H     43.51000000    78.42000000    31.67000000
   N     45.81000000    77.70000000    29.60000000
   C     46.54000000    78.07000000    28.41000000
   C     46.12000000    77.31000000    27.15000000
   O     45.83000000    76.12000000    27.27000000
   C     48.04000000    77.86000000    28.62000000
   C     48.57000000    76.45000000    28.87000000
   O     48.54000000    78.70000000    29.64000000
   H     45.87000000    76.71000000    29.76000000
   H     46.37000000    79.10000000    28.10000000
   H     48.56000000    78.17000000    27.71000000
   H     48.38000000    78.21000000    30.45000000
   H     48.31000000    76.08000000    29.86000000
   H     48.14000000    75.75000000    28.15000000
   H     49.63000000    76.37000000    28.63000000
   N     46.32000000    77.93000000    25.98000000
   C     46.23000000    77.41000000    24.63000000
   C     47.55000000    77.28000000    23.88000000
   O     48.11000000    78.21000000    23.32000000
   C     45.17000000    78.22000000    23.91000000
   C     45.07000000    77.76000000    22.45000000
   C     45.31000000    79.74000000    23.88000000
   C     44.67000000    76.31000000    22.20000000
   H     46.45000000    78.93000000    26.03000000
   H     45.83000000    76.41000000    24.79000000
   H     44.18000000    77.97000000    24.28000000
   H     45.97000000    78.04000000    21.90000000
   H     44.29000000    78.24000000    21.87000000
   H     45.47000000    80.02000000    24.92000000
   H     46.17000000    80.01000000    23.27000000
   H     44.37000000    80.16000000    23.51000000
   H     43.83000000    76.03000000    22.83000000
   H     44.42000000    76.25000000    21.14000000
   H     45.36000000    75.49000000    22.42000000
   N     48.11000000    76.07000000    23.93000000
   C     49.33000000    75.65000000    23.27000000
   C     49.01000000    74.88000000    22.00000000
   O     49.71000000    74.98000000    20.99000000
   C     50.27000000    74.92000000    24.22000000
   C     49.82000000    73.54000000    24.71000000
   O     50.48000000    75.76000000    25.33000000
   H     47.59000000    75.46000000    24.54000000
   H     49.95000000    76.50000000    22.99000000
   H     51.21000000    74.82000000    23.67000000
   H     50.54000000    76.68000000    25.07000000
   H     49.11000000    73.64000000    25.53000000
   H     49.51000000    72.89000000    23.89000000
   H     50.71000000    73.17000000    25.21000000
   N     47.95000000    74.08000000    21.99000000
   C     47.69000000    72.99000000    21.06000000
   C     48.70000000    71.85000000    21.06000000
   O     49.87000000    72.04000000    21.35000000
   C     47.60000000    73.57000000    19.65000000
   C     46.68000000    74.78000000    19.52000000
   O     46.94000000    72.65000000    18.82000000
   H     47.28000000    74.08000000    22.75000000
   H     46.72000000    72.53000000    21.27000000
   H     48.58000000    73.71000000    19.20000000
   H     46.74000000    73.04000000    17.96000000
   H     45.67000000    74.43000000    19.73000000
   H     46.82000000    75.56000000    20.27000000
   H     46.68000000    75.32000000    18.57000000
   N     48.22000000    70.65000000    20.72000000
   C     48.98000000    69.44000000    20.46000000
   C     48.45000000    68.09000000    20.93000000
   O     49.12000000    67.10000000    20.64000000
   C     49.09000000    69.33000000    18.94000000
   C     50.22000000    70.19000000    18.39000000
   C     51.64000000    69.79000000    18.75000000
   C     52.62000000    70.70000000    18.02000000
   N     53.01000000    70.02000000    16.77000000
   H     47.24000000    70.65000000    20.46000000
   H     49.95000000    69.62000000    20.91000000
   H     48.11000000    69.62000000    18.57000000
   H     49.17000000    68.30000000    18.58000000
   H     50.06000000    71.21000000    18.76000000
   H     50.06000000    70.16000000    17.31000000
   H     51.89000000    68.74000000    18.59000000
   H     51.73000000    70.00000000    19.82000000
   H     53.54000000    70.93000000    18.55000000
   H     52.10000000    71.63000000    17.83000000
   H     53.89000000    69.56000000    16.94000000
   H     52.35000000    69.30000000    16.54000000
   H     53.21000000    70.59000000    15.95000000
   N     47.32000000    67.84000000    21.60000000
   C     46.19000000    68.67000000    21.96000000
   C     45.53000000    69.37000000    20.78000000
   O     45.12000000    70.52000000    20.91000000
   C     46.40000000    69.42000000    23.27000000
   C     45.18000000    69.92000000    24.04000000
   C     45.51000000    70.32000000    25.47000000
   O     45.39000000    69.48000000    26.39000000
   O     46.02000000    71.43000000    25.75000000
   H     47.23000000    66.86000000    21.86000000
   H     45.39000000    67.97000000    22.20000000
   H     47.17000000    70.19000000    23.15000000
   H     46.94000000    68.80000000    23.97000000
   H     44.43000000    69.13000000    24.01000000
   H     44.92000000    70.82000000    23.49000000
   N     45.51000000    68.69000000    19.63000000
   C     45.16000000    69.25000000    18.34000000
   H     44.32300000    69.93800000    18.45800000
   H     46.01600000    69.78800000    17.93200000
   H     44.87700000    68.44700000    17.65900000
   H     45.75000000    67.72000000    19.77000000
  Ca     46.09000000    71.02000000    28.28000000
   O     43.48000000    72.17000000    28.00000000
   H     43.47000000    72.69000000    27.20000000
   H     42.79000000    72.55000000    28.55000000
   O     48.59000000    70.79000000    27.25000000
   H     48.94000000    70.27000000    26.53000000
   H     49.17000000    71.54000000    27.31000000
   O     46.64000000    73.65000000    27.70000000
   H     46.11000000    74.45000000    27.78000000
   H     47.03000000    73.71000000    26.83000000
   O     47.62000000    68.74000000    28.88000000
   H     47.64000000    67.91000000    28.40000000
   H     48.54000000    68.96000000    29.03000000
   O     44.77000000    68.91000000    29.35000000
   H     44.74000000    68.00000000    29.05000000
   H     43.99000000    69.01000000    29.89000000

Ca 1.00



