%chk=loop2.cluster25.chk
%nprocshared=20
%mem=10GB
%nosave
#b3lyp/svp scf=(tight,noincore,xqc) Test 
#IOP(5/87=12) Density=Current Pop=(MK,readradii) iop(6/33=2) iop(6/42=6)

loop2.cluster25 

   -2  1 
   C     50.96000000    44.13000000    16.36000000
   C     52.24000000    43.81000000    15.61000000
   O     53.07000000    44.71000000    15.45000000
   H     50.14900000    43.51200000    15.97400000
   H     51.09900000    43.92500000    17.42100000
   H     50.71100000    45.18200000    16.22200000
   N     52.49000000    42.57000000    15.18000000
   C     53.55000000    42.17000000    14.26000000
   C     53.57000000    42.92000000    12.94000000
   O     52.48000000    43.12000000    12.41000000
   C     53.41000000    40.66000000    14.11000000
   C     54.59000000    39.99000000    13.41000000
   O     55.78000000    40.12000000    13.76000000
   O     54.32000000    39.15000000    12.52000000
   H     51.79000000    41.88000000    15.39000000
   H     54.49000000    42.24000000    14.80000000
   H     52.52000000    40.55000000    13.50000000
   H     53.27000000    40.11000000    15.04000000
   N     54.76000000    43.33000000    12.49000000
   C     54.89000000    44.10000000    11.27000000
   C     55.82000000    43.58000000    10.19000000
   O     55.72000000    44.05000000     9.05000000
   C     55.39000000    45.46000000    11.73000000
   H     55.53000000    43.23000000    13.15000000
   H     53.88000000    44.27000000    10.90000000
   H     55.40000000    46.15000000    10.89000000
   H     54.77000000    45.96000000    12.48000000
   H     56.42000000    45.32000000    12.06000000
   N     56.59000000    42.54000000    10.52000000
   C     57.44000000    41.84000000     9.58000000
   C     56.96000000    40.43000000     9.28000000
   O     57.65000000    39.79000000     8.49000000
   C     58.85000000    41.81000000    10.15000000
   C     58.91000000    41.40000000    11.62000000
   O     58.24000000    40.43000000    12.04000000
   O     59.63000000    42.01000000    12.44000000
   H     56.49000000    42.29000000    11.50000000
   H     57.53000000    42.47000000     8.70000000
   H     59.27000000    42.81000000    10.03000000
   H     59.51000000    41.19000000     9.54000000
   N     55.84000000    39.99000000     9.86000000
   C     55.34000000    38.66000000     9.57000000
   C     56.04000000    37.51000000    10.28000000
   O     55.67000000    36.38000000     9.96000000
   H     55.43000000    40.60000000    10.56000000
   H     55.44000000    38.61000000     8.48000000
   H     54.31000000    38.57000000     9.92000000
   N     56.95000000    37.70000000    11.24000000
   C     57.65000000    36.61000000    11.90000000
   C     56.77000000    36.09000000    13.04000000
   O     56.95000000    34.94000000    13.43000000
   C     59.01000000    37.11000000    12.38000000
   C     59.03000000    37.62000000    13.81000000
   N     59.83000000    36.99000000    14.68000000
   O     58.26000000    38.47000000    14.25000000
   H     57.21000000    38.64000000    11.48000000
   H     57.96000000    35.80000000    11.25000000
   H     59.50000000    37.77000000    11.67000000
   H     59.63000000    36.22000000    12.44000000
   H     60.35000000    36.17000000    14.39000000
   H     59.72000000    37.25000000    15.65000000
   N     55.83000000    36.82000000    13.64000000
   C     55.00000000    36.34000000    14.72000000
   C     55.63000000    36.42000000    16.10000000
   O     55.35000000    35.56000000    16.94000000
   H     55.54000000    37.69000000    13.21000000
   H     54.76000000    35.29000000    14.54000000
   H     54.04000000    36.87000000    14.78000000
   N     56.57000000    37.34000000    16.34000000
   C     56.99000000    37.64000000    17.70000000
   C     57.28000000    39.12000000    17.87000000
   O     57.79000000    39.79000000    16.97000000
   C     58.25000000    36.91000000    18.15000000
   C     58.11000000    35.39000000    18.14000000
   O     59.40000000    37.26000000    17.40000000
   H     56.96000000    37.91000000    15.61000000
   H     56.19000000    37.45000000    18.41000000
   H     58.48000000    37.23000000    19.16000000
   H     60.00000000    36.51000000    17.38000000
   H     57.20000000    35.10000000    18.66000000
   H     58.21000000    34.96000000    17.14000000
   H     58.95000000    34.96000000    18.69000000
   N     57.03000000    39.63000000    19.08000000
   C     57.29000000    41.02000000    19.39000000
   C     58.79000000    41.13000000    19.63000000
   O     59.29000000    40.77000000    20.70000000
   C     56.37000000    41.50000000    20.51000000
   C     54.92000000    41.04000000    20.48000000
   C     56.29000000    43.02000000    20.39000000
   C     54.03000000    41.57000000    21.60000000
   H     56.58000000    39.10000000    19.81000000
   H     57.05000000    41.66000000    18.54000000
   H     56.85000000    41.25000000    21.45000000
   H     54.92000000    39.96000000    20.67000000
   H     54.42000000    41.22000000    19.53000000
   H     57.18000000    43.48000000    19.97000000
   H     55.41000000    43.16000000    19.76000000
   H     56.02000000    43.47000000    21.35000000
   H     54.04000000    42.66000000    21.48000000
   H     53.03000000    41.19000000    21.39000000
   H     54.32000000    41.19000000    22.58000000
   N     59.48000000    41.75000000    18.67000000
   C     60.82000000    42.27000000    18.83000000
   C     60.73000000    43.63000000    19.51000000
   O     59.70000000    44.29000000    19.52000000
   C     61.61000000    42.37000000    17.53000000
   C     60.84000000    42.74000000    16.27000000
   O     61.41000000    43.42000000    15.39000000
   O     59.69000000    42.32000000    16.01000000
   H     59.06000000    42.01000000    17.79000000
   H     61.34000000    41.64000000    19.54000000
   H     62.12000000    41.45000000    17.26000000
   H     62.46000000    43.04000000    17.65000000
   N     61.79000000    44.26000000    20.04000000
   C     61.80000000    45.42000000    20.90000000
   C     61.35000000    46.73000000    20.26000000
   O     60.51000000    47.39000000    20.86000000
   C     63.18000000    45.52000000    21.55000000
   C     63.47000000    46.65000000    22.51000000
   C     64.41000000    47.63000000    22.14000000
   C     62.81000000    46.76000000    23.74000000
   C     64.62000000    48.73000000    22.98000000
   C     63.15000000    47.80000000    24.61000000
   C     63.96000000    48.88000000    24.20000000
   H     62.61000000    43.69000000    19.90000000
   H     61.04000000    45.22000000    21.65000000
   H     63.90000000    45.56000000    20.74000000
   H     63.41000000    44.62000000    22.11000000
   H     64.93000000    47.46000000    21.21000000
   H     62.20000000    45.92000000    24.01000000
   H     65.34000000    49.46000000    22.64000000
   H     62.60000000    47.72000000    25.53000000
   H     64.11000000    49.73000000    24.85000000
   N     61.87000000    47.08000000    19.08000000
   C     61.36000000    48.17000000    18.28000000
   C     59.90000000    47.92000000    17.95000000
   O     59.18000000    48.90000000    17.81000000
   C     62.26000000    48.35000000    17.06000000
   C     63.02000000    47.03000000    17.03000000
   C     63.11000000    46.62000000    18.50000000
   H     61.33000000    49.12000000    18.82000000
   H     61.67000000    48.40000000    16.14000000
   H     62.91000000    49.21000000    17.22000000
   H     62.51000000    46.20000000    16.54000000
   H     63.98000000    47.17000000    16.53000000
   H     63.26000000    45.55000000    18.62000000
   H     63.93000000    47.15000000    19.00000000
   N     59.42000000    46.67000000    17.85000000
   C     58.05000000    46.31000000    17.54000000
   C     57.20000000    46.50000000    18.79000000
   O     56.10000000    47.02000000    18.61000000
   C     57.99000000    44.95000000    16.86000000
   C     56.62000000    44.61000000    16.27000000
   C     56.81000000    43.31000000    15.50000000
   O     57.11000000    43.28000000    14.28000000
   O     56.58000000    42.25000000    16.12000000
   H     60.02000000    45.87000000    17.99000000
   H     57.74000000    47.06000000    16.82000000
   H     58.27000000    44.15000000    17.55000000
   H     58.72000000    45.12000000    16.06000000
   H     56.24000000    45.39000000    15.61000000
   H     55.89000000    44.52000000    17.07000000
   N     57.74000000    46.29000000    19.99000000
   C     57.07000000    46.67000000    21.22000000
   H     56.06400000    46.24900000    21.23000000
   H     57.63100000    46.28900000    22.07300000
   H     57.00900000    47.75700000    21.28100000
   H     58.64000000    45.83000000    20.06000000
  Ca     58.18000000    40.96000000    14.53000000
   O     60.86000000    40.06000000    14.77000000
   H     61.03000000    39.41000000    15.45000000
   H     61.72000000    40.41000000    14.55000000

Ca 1.00



