%chk=loop2.cluster63.chk
%nprocshared=20
%mem=10GB
%nosave
#b3lyp/svp scf=(tight,noincore,xqc) Test 
#IOP(5/87=12) Density=Current Pop=(MK,readradii) iop(6/33=2) iop(6/42=6)

loop2.cluster63 

   -2  1 
   C    108.36000000    61.38000000    -5.32000000
   C    106.94000000    61.92000000    -5.41000000
   O    105.99000000    61.14000000    -5.36000000
   H    109.01500000    62.14800000    -4.90800000
   H    108.37600000    60.50400000    -4.67100000
   H    108.70800000    61.10200000    -6.31500000
   N    106.57000000    63.18000000    -5.64000000
   C    107.29000000    64.35000000    -5.18000000
   C    107.13000000    65.60000000    -6.04000000
   O    106.03000000    65.86000000    -6.51000000
   C    106.86000000    64.75000000    -3.77000000
   C    105.36000000    64.88000000    -3.58000000
   O    104.46000000    64.49000000    -4.37000000
   O    105.09000000    65.50000000    -2.53000000
   H    105.57000000    63.24000000    -5.77000000
   H    108.34000000    64.10000000    -5.09000000
   H    107.37000000    65.68000000    -3.50000000
   H    107.13000000    63.99000000    -3.04000000
   N    108.20000000    66.36000000    -6.28000000
   C    108.31000000    67.55000000    -7.10000000
   C    107.46000000    68.77000000    -6.75000000
   O    108.07000000    69.82000000    -6.65000000
   C    108.21000000    67.17000000    -8.57000000
   H    109.12000000    66.07000000    -5.97000000
   H    109.34000000    67.84000000    -6.87000000
   H    108.53000000    67.99000000    -9.21000000
   H    108.72000000    66.21000000    -8.73000000
   H    107.17000000    66.94000000    -8.77000000
   N    106.13000000    68.66000000    -6.68000000
   C    105.22000000    69.77000000    -6.46000000
   C    104.53000000    69.82000000    -5.10000000
   O    104.29000000    68.78000000    -4.49000000
   C    104.21000000    69.90000000    -7.60000000
   C    103.22000000    68.75000000    -7.72000000
   O    103.52000000    67.54000000    -7.77000000
   O    102.04000000    69.13000000    -7.92000000
   H    105.77000000    67.73000000    -6.82000000
   H    105.89000000    70.61000000    -6.58000000
   H    104.74000000    70.15000000    -8.52000000
   H    103.71000000    70.86000000    -7.45000000
   N    104.20000000    71.02000000    -4.62000000
   C    103.72000000    71.18000000    -3.26000000
   C    102.24000000    70.90000000    -3.04000000
   O    101.41000000    70.95000000    -3.94000000
   H    104.62000000    71.79000000    -5.12000000
   H    103.75000000    72.26000000    -3.13000000
   H    104.41000000    70.64000000    -2.61000000
   N    102.00000000    70.61000000    -1.76000000
   C    100.68000000    70.51000000    -1.18000000
   C    100.51000000    71.30000000     0.11000000
   O    101.46000000    71.80000000     0.71000000
   C    100.34000000    69.03000000    -1.02000000
   C     99.92000000    68.39000000    -2.34000000
   N     98.72000000    68.67000000    -2.85000000
   O    100.72000000    67.74000000    -3.01000000
   H    102.82000000    70.44000000    -1.19000000
   H     99.95000000    70.96000000    -1.85000000
   H     99.45000000    68.97000000    -0.39000000
   H    101.17000000    68.45000000    -0.61000000
   H     98.17000000    69.35000000    -2.34000000
   H     98.52000000    68.35000000    -3.78000000
   N     99.25000000    71.53000000     0.49000000
   C     98.94000000    72.15000000     1.76000000
   C     97.62000000    72.88000000     1.96000000
   O     96.95000000    73.15000000     0.96000000
   H     98.53000000    71.15000000    -0.11000000
   H     99.73000000    72.82000000     2.08000000
   H     98.88000000    71.34000000     2.49000000
   N     97.11000000    73.24000000     3.14000000
   C     97.67000000    73.04000000     4.46000000
   C     97.65000000    71.64000000     5.06000000
   O     98.31000000    71.38000000     6.07000000
   C     97.03000000    73.95000000     5.50000000
   C     97.70000000    75.32000000     5.56000000
   O     95.66000000    74.00000000     5.19000000
   H     96.19000000    73.65000000     3.11000000
   H     98.73000000    73.28000000     4.42000000
   H     97.21000000    73.52000000     6.49000000
   H     95.15000000    74.10000000     6.00000000
   H     97.71000000    75.82000000     4.59000000
   H     97.11000000    76.00000000     6.19000000
   H     98.71000000    75.21000000     5.96000000
   N     96.90000000    70.74000000     4.43000000
   C     96.52000000    69.41000000     4.86000000
   C     95.68000000    69.54000000     6.12000000
   O     96.20000000    69.75000000     7.21000000
   C     97.68000000    68.42000000     4.93000000
   C     98.37000000    68.38000000     3.57000000
   C     97.02000000    67.08000000     5.27000000
   C     97.54000000    68.33000000     2.29000000
   H     96.46000000    71.06000000     3.58000000
   H     95.88000000    68.98000000     4.08000000
   H     98.34000000    68.84000000     5.68000000
   H     99.06000000    67.54000000     3.56000000
   H     98.95000000    69.30000000     3.60000000
   H     96.83000000    67.06000000     6.34000000
   H     96.08000000    66.86000000     4.77000000
   H     97.77000000    66.29000000     5.15000000
   H     96.75000000    67.60000000     2.48000000
   H     97.18000000    69.33000000     2.06000000
   H     98.02000000    68.08000000     1.34000000
   N     94.35000000    69.39000000     6.06000000
   C     93.39000000    69.09000000     5.02000000
   C     93.47000000    67.61000000     4.68000000
   O     94.11000000    67.35000000     3.66000000
   C     91.97000000    69.53000000     5.38000000
   C     91.44000000    69.12000000     6.75000000
   O     92.16000000    68.64000000     7.65000000
   O     90.24000000    69.33000000     7.01000000
   H     93.86000000    69.34000000     6.94000000
   H     93.62000000    69.70000000     4.14000000
   H     91.28000000    69.08000000     4.66000000
   H     91.85000000    70.59000000     5.15000000
   N     92.90000000    66.74000000     5.52000000
   C     92.83000000    65.32000000     5.26000000
   C     91.41000000    64.79000000     5.36000000
   O     90.60000000    65.55000000     5.89000000
   C     93.90000000    64.70000000     6.15000000
   C     93.64000000    64.72000000     7.64000000
   C     94.10000000    65.79000000     8.41000000
   C     92.87000000    63.76000000     8.31000000
   C     93.66000000    66.00000000     9.72000000
   C     92.42000000    63.86000000     9.63000000
   C     92.85000000    65.01000000    10.30000000
   H     92.36000000    67.09000000     6.30000000
   H     93.16000000    65.30000000     4.21000000
   H     94.83000000    65.23000000     5.95000000
   H     93.89000000    63.64000000     5.88000000
   H     94.67000000    66.60000000     7.98000000
   H     92.50000000    62.87000000     7.82000000
   H     94.16000000    66.78000000    10.27000000
   H     91.78000000    63.09000000    10.03000000
   H     92.54000000    65.08000000    11.34000000
   N     91.10000000    63.62000000     4.80000000
   C     91.97000000    62.81000000     3.97000000
   C     92.28000000    63.31000000     2.57000000
   O     91.61000000    64.25000000     2.14000000
   C     91.05000000    61.59000000     3.86000000
   C     90.26000000    61.44000000     5.15000000
   C     89.88000000    62.92000000     5.17000000
   H     92.96000000    62.60000000     4.38000000
   H     90.41000000    61.70000000     2.98000000
   H     91.64000000    60.69000000     3.69000000
   H     89.40000000    60.77000000     5.24000000
   H     91.01000000    61.24000000     5.91000000
   H     89.04000000    63.12000000     4.51000000
   H     89.50000000    63.18000000     6.16000000
   N     93.14000000    62.60000000     1.83000000
   C     93.48000000    62.67000000     0.43000000
   C     94.98000000    62.58000000     0.16000000
   O     95.36000000    62.60000000    -1.01000000
   C     92.73000000    61.59000000    -0.34000000
   C     91.34000000    62.07000000    -0.73000000
   C     91.35000000    63.18000000    -1.77000000
   O     91.63000000    64.37000000    -1.51000000
   O     91.15000000    62.93000000    -2.98000000
   H     93.36000000    61.73000000     2.29000000
   H     93.29000000    63.67000000     0.04000000
   H     92.55000000    60.71000000     0.29000000
   H     93.22000000    61.32000000    -1.27000000
   H     90.88000000    62.43000000     0.19000000
   H     90.83000000    61.18000000    -1.10000000
   N     95.95000000    62.63000000     1.07000000
   C     96.04000000    62.83000000     2.50000000
   H     96.43500000    63.82600000     2.70300000
   H     95.04900000    62.73500000     2.94400000
   H     96.70500000    62.08100000     2.93100000
   H     96.82000000    62.88000000     0.62000000
  Ca    103.38000000    65.15000000    -6.70000000
   O    104.82000000    64.86000000    -9.09000000
   H    105.69000000    64.82000000    -9.50000000
   H    104.22000000    64.96000000    -9.82000000
   O    100.87000000    66.30000000    -7.09000000
   H    100.98000000    67.13000000    -6.63000000
   H     99.94000000    66.26000000    -7.31000000
   O    102.65000000    66.83000000    -4.66000000
   H    103.24000000    67.58000000    -4.61000000
   H    101.98000000    67.02000000    -4.00000000
   O    101.97000000    63.89000000    -8.63000000
   H    101.53000000    64.42000000    -9.30000000
   H    102.02000000    63.02000000    -9.02000000
   O    104.23000000    62.57000000    -7.28000000
   H    104.32000000    62.32000000    -8.20000000
   H    104.35000000    61.74000000    -6.80000000
   O    101.38000000    63.73000000    -5.49000000
   H    100.72000000    63.15000000    -5.88000000
   H    100.97000000    64.05000000    -4.69000000

Ca 1.00



