%chk=loop4.cluster39.chk
%nprocshared=20
%mem=10GB
%nosave
#b3lyp/svp scf=(tight,noincore,xqc) Test 
#IOP(5/87=12) Density=Current Pop=(MK,readradii) iop(6/33=2) iop(6/42=6)

loop4.cluster39 

   -3  1 
   C     59.43000000    58.84000000    46.29000000
   C     58.59000000    59.50000000    47.38000000
   O     57.65000000    60.19000000    47.00000000
   H     60.40900000    58.58000000    46.69400000
   H     58.93000000    57.93600000    45.94200000
   H     59.55300000    59.53200000    45.45700000
   N     58.97000000    59.26000000    48.64000000
   C     58.20000000    59.78000000    49.75000000
   C     58.51000000    61.24000000    50.05000000
   O     59.70000000    61.52000000    50.13000000
   C     58.41000000    58.88000000    50.97000000
   C     57.36000000    59.22000000    52.02000000
   O     56.22000000    58.73000000    51.94000000
   O     57.66000000    60.02000000    52.93000000
   H     59.86000000    58.82000000    48.80000000
   H     57.17000000    59.85000000    49.41000000
   H     59.38000000    59.12000000    51.39000000
   H     58.41000000    57.79000000    50.89000000
   N     57.50000000    62.11000000    49.98000000
   C     57.59000000    63.56000000    49.98000000
   C     57.05000000    64.12000000    51.29000000
   O     57.50000000    65.19000000    51.69000000
   C     56.99000000    64.19000000    48.73000000
   C     57.55000000    63.80000000    47.37000000
   C     56.88000000    65.71000000    48.68000000
   C     56.70000000    63.94000000    46.11000000
   H     56.57000000    61.76000000    49.80000000
   H     58.65000000    63.81000000    50.03000000
   H     55.94000000    63.91000000    48.76000000
   H     57.68000000    62.72000000    47.43000000
   H     58.52000000    64.28000000    47.23000000
   H     57.82000000    66.15000000    49.01000000
   H     56.66000000    66.14000000    47.70000000
   H     56.12000000    66.04000000    49.38000000
   H     56.31000000    64.96000000    46.15000000
   H     57.39000000    63.66000000    45.31000000
   H     55.83000000    63.29000000    46.15000000
   N     56.20000000    63.45000000    52.06000000
   C     55.55000000    63.95000000    53.26000000
   C     56.34000000    63.56000000    54.50000000
   O     56.14000000    64.02000000    55.62000000
   C     54.07000000    63.57000000    53.35000000
   C     53.87000000    62.07000000    53.12000000
   O     54.77000000    61.25000000    53.38000000
   O     52.87000000    61.70000000    52.46000000
   H     55.87000000    62.55000000    51.72000000
   H     55.59000000    65.03000000    53.21000000
   H     53.53000000    64.10000000    52.57000000
   H     53.69000000    63.82000000    54.34000000
   N     57.23000000    62.57000000    54.40000000
   C     57.88000000    61.99000000    55.56000000
   C     57.25000000    60.73000000    56.13000000
   O     57.65000000    60.45000000    57.26000000
   H     57.32000000    62.19000000    53.47000000
   H     57.97000000    62.71000000    56.37000000
   H     58.86000000    61.70000000    55.17000000
   N     56.29000000    59.98000000    55.57000000
   C     55.57000000    58.86000000    56.13000000
   C     56.17000000    57.47000000    55.96000000
   O     55.93000000    56.59000000    56.78000000
   C     54.05000000    58.97000000    56.10000000
   C     53.47000000    58.66000000    54.73000000
   O     52.46000000    59.28000000    54.32000000
   O     53.97000000    57.79000000    53.99000000
   H     55.94000000    60.30000000    54.68000000
   H     55.77000000    59.01000000    57.19000000
   H     53.91000000    60.01000000    56.39000000
   H     53.51000000    58.39000000    56.85000000
   N     57.07000000    57.39000000    54.97000000
   C     57.77000000    56.18000000    54.57000000
   C     57.02000000    55.22000000    53.67000000
   O     57.60000000    54.16000000    53.45000000
   H     57.16000000    58.21000000    54.40000000
   H     57.99000000    55.60000000    55.47000000
   H     58.72000000    56.42000000    54.10000000
   N     55.84000000    55.49000000    53.10000000
   C     55.15000000    54.71000000    52.09000000
   C     54.50000000    55.65000000    51.09000000
   O     54.05000000    56.76000000    51.39000000
   C     54.10000000    53.78000000    52.69000000
   C     54.76000000    52.73000000    53.58000000
   C     53.75000000    51.74000000    54.15000000
   N     54.14000000    50.92000000    55.13000000
   O     52.57000000    51.70000000    53.81000000
   H     55.29000000    56.30000000    53.34000000
   H     55.89000000    54.08000000    51.59000000
   H     53.55000000    53.34000000    51.86000000
   H     53.34000000    54.39000000    53.16000000
   H     55.25000000    53.18000000    54.44000000
   H     55.50000000    52.20000000    52.98000000
   H     55.12000000    51.00000000    55.36000000
   H     53.41000000    50.61000000    55.75000000
   N     54.41000000    55.23000000    49.82000000
   C     54.04000000    56.03000000    48.67000000
   C     52.57000000    55.75000000    48.37000000
   O     52.19000000    54.70000000    47.87000000
   C     54.99000000    55.73000000    47.53000000
   C     54.62000000    56.37000000    46.19000000
   C     56.44000000    56.05000000    47.89000000
   H     54.74000000    54.29000000    49.63000000
   H     54.12000000    57.07000000    49.01000000
   H     54.95000000    54.65000000    47.39000000
   H     54.86000000    57.43000000    46.15000000
   H     55.16000000    55.79000000    45.44000000
   H     53.59000000    56.08000000    45.96000000
   H     56.62000000    55.82000000    48.94000000
   H     57.09000000    55.54000000    47.19000000
   H     56.59000000    57.13000000    47.85000000
   N     51.71000000    56.73000000    48.67000000
   C     50.36000000    56.84000000    48.16000000
   C     50.31000000    57.28000000    46.71000000
   O     51.31000000    57.61000000    46.07000000
   C     49.68000000    57.87000000    49.06000000
   C     49.57000000    59.29000000    48.53000000
   N     50.71000000    59.96000000    48.35000000
   O     48.52000000    59.80000000    48.15000000
   H     52.15000000    57.47000000    49.20000000
   H     50.00000000    55.81000000    48.25000000
   H     50.23000000    57.96000000    50.00000000
   H     48.73000000    57.48000000    49.41000000
   H     51.59000000    59.66000000    48.76000000
   H     50.61000000    60.95000000    48.19000000
   N     49.07000000    57.22000000    46.20000000
   C     48.75000000    57.57000000    44.83000000
   C     49.22000000    58.95000000    44.37000000
   O     49.64000000    59.03000000    43.22000000
   C     47.27000000    57.39000000    44.55000000
   C     47.03000000    57.45000000    43.06000000
   C     47.35000000    56.30000000    42.33000000
   C     46.47000000    58.58000000    42.47000000
   C     47.14000000    56.39000000    40.95000000
   C     46.21000000    58.64000000    41.10000000
   C     46.66000000    57.56000000    40.32000000
   O     46.40000000    57.49000000    38.98000000
   H     48.31000000    56.97000000    46.81000000
   H     49.37000000    56.93000000    44.20000000
   H     46.73000000    58.21000000    45.02000000
   H     46.93000000    56.45000000    45.01000000
   H     47.95000000    55.56000000    42.84000000
   H     46.22000000    59.49000000    43.01000000
   H     47.50000000    55.59000000    40.32000000
   H     45.72000000    59.51000000    40.68000000
   H     46.19000000    58.35000000    38.59000000
   N     49.19000000    60.01000000    45.18000000
   C     49.50000000    61.32000000    44.64000000
   C     51.02000000    61.37000000    44.52000000
   O     51.51000000    62.05000000    43.62000000
   C     49.10000000    62.41000000    45.63000000
   C     47.60000000    62.69000000    45.69000000
   C     47.36000000    63.94000000    46.52000000
   O     48.01000000    64.12000000    47.57000000
   O     46.52000000    64.78000000    46.12000000
   H     48.70000000    59.89000000    46.05000000
   H     48.97000000    61.51000000    43.71000000
   H     49.63000000    63.34000000    45.42000000
   H     49.40000000    62.04000000    46.61000000
   H     47.09000000    61.83000000    46.12000000
   H     47.18000000    62.70000000    44.68000000
   N     51.83000000    60.71000000    45.35000000
   C     53.27000000    60.58000000    45.27000000
   C     53.72000000    59.71000000    44.10000000
   O     54.83000000    59.86000000    43.59000000
   C     53.90000000    60.00000000    46.54000000
   C     54.03000000    61.14000000    47.55000000
   C     54.18000000    60.47000000    48.91000000
   O     55.02000000    60.80000000    49.77000000
   O     53.43000000    59.53000000    49.26000000
   H     51.36000000    60.12000000    46.01000000
   H     53.74000000    61.53000000    45.01000000
   H     54.93000000    59.73000000    46.30000000
   H     53.31000000    59.16000000    46.90000000
   H     53.26000000    61.91000000    47.55000000
   H     54.97000000    61.67000000    47.43000000
   N     52.80000000    58.90000000    43.59000000
   C     53.08000000    58.00000000    42.49000000
   H     54.10500000    57.63800000    42.57000000
   H     52.39300000    57.15500000    42.52700000
   H     52.95500000    58.53000000    41.54600000
   H     51.94000000    58.79000000    44.10000000
  Ca     53.84000000    59.43000000    51.79000000
   O     51.10000000    59.11000000    52.06000000
   H     50.17000000    59.32000000    52.04000000
   H     51.35000000    59.16000000    52.98000000

Ca 1.00



