%chk=loop4.cluster118.chk
%nprocshared=20
%mem=10GB
%nosave
#b3lyp/svp scf=(tight,noincore,xqc) Test 
#IOP(5/87=12) Density=Current Pop=(MK,readradii) iop(6/33=2) iop(6/42=6)

loop4.cluster118 

   -3  1 
   C    108.22000000    26.60000000    66.44000000
   C    109.54000000    27.14000000    66.95000000
   O    109.93000000    28.27000000    66.67000000
   H    107.48700000    27.40600000    66.40600000
   H    108.35600000    26.19100000    65.43900000
   H    107.86500000    25.81500000    67.10800000
   N    110.27000000    26.31000000    67.71000000
   C    111.53000000    26.59000000    68.36000000
   C    111.55000000    27.73000000    69.36000000
   O    112.50000000    28.52000000    69.35000000
   C    112.63000000    26.68000000    67.30000000
   C    112.49000000    25.63000000    66.21000000
   O    112.04000000    26.02000000    65.11000000
   O    112.72000000    24.42000000    66.41000000
   H    109.79000000    25.48000000    68.03000000
   H    111.87000000    25.73000000    68.93000000
   H    113.59000000    26.53000000    67.81000000
   H    112.59000000    27.62000000    66.76000000
   N    110.56000000    27.85000000    70.24000000
   C    110.49000000    28.88000000    71.26000000
   C    110.57000000    28.21000000    72.62000000
   O    109.74000000    27.33000000    72.87000000
   C    109.25000000    29.75000000    71.09000000
   C    109.30000000    30.65000000    69.86000000
   C    108.74000000    30.50000000    72.31000000
   C    108.09000000    30.53000000    68.93000000
   H    109.77000000    27.22000000    70.13000000
   H    111.36000000    29.54000000    71.32000000
   H    108.51000000    28.99000000    70.82000000
   H    110.24000000    30.60000000    69.31000000
   H    109.46000000    31.66000000    70.25000000
   H    107.71000000    30.80000000    72.11000000
   H    108.72000000    29.87000000    73.20000000
   H    109.34000000    31.35000000    72.65000000
   H    107.28000000    30.79000000    69.62000000
   H    108.15000000    31.21000000    68.08000000
   H    107.97000000    29.53000000    68.54000000
   N    111.48000000    28.55000000    73.54000000
   C    112.55000000    29.52000000    73.38000000
   C    113.74000000    29.08000000    72.53000000
   O    114.38000000    29.90000000    71.88000000
   C    112.99000000    30.21000000    74.66000000
   C    111.91000000    30.87000000    75.51000000
   O    110.84000000    30.29000000    75.84000000
   O    112.12000000    31.96000000    76.07000000
   H    111.35000000    28.21000000    74.48000000
   H    112.06000000    30.28000000    72.77000000
   H    113.61000000    31.03000000    74.29000000
   H    113.60000000    29.49000000    75.20000000
   N    113.98000000    27.77000000    72.54000000
   C    115.00000000    27.00000000    71.85000000
   C    116.42000000    27.52000000    72.05000000
   O    116.82000000    27.93000000    73.14000000
   H    113.38000000    27.31000000    73.21000000
   H    114.75000000    26.97000000    70.79000000
   H    115.02000000    25.96000000    72.19000000
   N    117.21000000    27.57000000    70.98000000
   C    118.50000000    28.24000000    70.95000000
   C    118.58000000    29.52000000    70.13000000
   O    119.67000000    30.09000000    70.09000000
   C    119.52000000    27.25000000    70.38000000
   C    119.40000000    26.75000000    68.94000000
   O    120.29000000    25.96000000    68.56000000
   O    118.49000000    27.08000000    68.15000000
   H    116.99000000    27.10000000    70.12000000
   H    118.78000000    28.57000000    71.95000000
   H    119.68000000    26.38000000    71.01000000
   H    120.48000000    27.76000000    70.44000000
   N    117.47000000    29.96000000    69.54000000
   C    117.36000000    31.27000000    68.92000000
   C    117.75000000    31.28000000    67.44000000
   O    117.63000000    32.30000000    66.78000000
   H    116.63000000    29.41000000    69.64000000
   H    117.93000000    32.03000000    69.44000000
   H    116.34000000    31.61000000    69.08000000
   N    118.22000000    30.11000000    66.99000000
   C    118.77000000    29.93000000    65.66000000
   C    117.97000000    30.57000000    64.53000000
   O    118.51000000    31.28000000    63.68000000
   C    120.27000000    30.21000000    65.64000000
   C    121.14000000    29.32000000    66.53000000
   C    122.64000000    29.47000000    66.36000000
   N    123.48000000    28.47000000    66.66000000
   O    123.09000000    30.51000000    65.89000000
   H    118.30000000    29.30000000    67.58000000
   H    118.61000000    28.87000000    65.50000000
   H    120.50000000    31.24000000    65.94000000
   H    120.72000000    30.18000000    64.65000000
   H    120.85000000    28.28000000    66.40000000
   H    120.86000000    29.49000000    67.57000000
   H    123.09000000    27.60000000    66.99000000
   H    124.45000000    28.71000000    66.76000000
   N    116.68000000    30.27000000    64.36000000
   C    115.90000000    30.84000000    63.29000000
   C    115.95000000    29.99000000    62.03000000
   O    115.88000000    28.77000000    62.16000000
   C    114.47000000    31.24000000    63.66000000
   C    113.77000000    30.19000000    64.51000000
   C    114.30000000    32.57000000    64.40000000
   H    116.21000000    29.77000000    65.10000000
   H    116.37000000    31.76000000    62.96000000
   H    113.87000000    31.26000000    62.76000000
   H    113.75000000    29.19000000    64.08000000
   H    114.31000000    30.08000000    65.45000000
   H    112.80000000    30.62000000    64.76000000
   H    114.68000000    33.33000000    63.72000000
   H    113.25000000    32.84000000    64.53000000
   H    114.90000000    32.46000000    65.30000000
   N    116.16000000    30.48000000    60.80000000
   C    115.92000000    29.68000000    59.62000000
   C    114.47000000    29.23000000    59.50000000
   O    113.58000000    29.84000000    60.08000000
   C    116.31000000    30.56000000    58.44000000
   C    116.77000000    29.75000000    57.23000000
   N    117.20000000    30.44000000    56.18000000
   O    116.72000000    28.52000000    57.18000000
   H    116.14000000    31.48000000    60.73000000
   H    116.54000000    28.78000000    59.70000000
   H    117.27000000    31.05000000    58.57000000
   H    115.63000000    31.31000000    58.04000000
   H    117.15000000    31.44000000    56.20000000
   H    117.34000000    29.91000000    55.32000000
   N    114.15000000    28.25000000    58.65000000
   C    112.79000000    27.92000000    58.24000000
   C    112.68000000    26.53000000    57.63000000
   O    113.69000000    25.92000000    57.30000000
   C    112.38000000    29.02000000    57.28000000
   C    113.21000000    29.46000000    56.09000000
   C    113.21000000    28.52000000    55.05000000
   C    113.73000000    30.76000000    55.99000000
   C    113.96000000    28.84000000    53.92000000
   C    114.33000000    31.11000000    54.77000000
   C    114.48000000    30.14000000    53.77000000
   O    114.98000000    30.54000000    52.56000000
   H    114.83000000    27.62000000    58.26000000
   H    112.05000000    28.03000000    59.04000000
   H    111.99000000    29.93000000    57.74000000
   H    111.45000000    28.64000000    56.85000000
   H    112.89000000    27.50000000    55.24000000
   H    113.73000000    31.45000000    56.81000000
   H    114.17000000    28.08000000    53.18000000
   H    114.74000000    32.11000000    54.68000000
   H    115.30000000    31.45000000    52.60000000
   N    111.50000000    25.93000000    57.48000000
   C    111.30000000    24.55000000    57.07000000
   C    110.28000000    24.35000000    55.96000000
   O    110.67000000    23.77000000    54.95000000
   C    111.04000000    23.67000000    58.29000000
   C    112.28000000    23.72000000    59.17000000
   C    112.13000000    22.85000000    60.42000000
   O    111.27000000    23.13000000    61.27000000
   O    112.70000000    21.74000000    60.45000000
   H    110.64000000    26.45000000    57.58000000
   H    112.28000000    24.26000000    56.69000000
   H    110.79000000    22.64000000    58.01000000
   H    110.25000000    24.10000000    58.90000000
   H    112.45000000    24.73000000    59.54000000
   H    113.15000000    23.32000000    58.66000000
   N    109.01000000    24.75000000    55.99000000
   C    108.23000000    25.01000000    57.18000000
   C    107.18000000    26.11000000    57.00000000
   O    106.75000000    26.40000000    55.89000000
   C    107.62000000    23.72000000    57.72000000
   C    106.47000000    22.96000000    57.06000000
   C    107.01000000    21.89000000    56.12000000
   O    107.31000000    22.13000000    54.93000000
   O    107.24000000    20.75000000    56.56000000
   H    108.42000000    24.48000000    55.22000000
   H    108.91000000    25.40000000    57.94000000
   H    107.25000000    24.00000000    58.71000000
   H    108.35000000    22.93000000    57.83000000
   H    105.80000000    23.72000000    56.67000000
   H    106.00000000    22.47000000    57.91000000
   N    106.84000000    26.67000000    58.17000000
   C    105.66000000    27.41000000    58.55000000
   H    104.83600000    26.71700000    58.71800000
   H    105.85900000    27.96600000    59.46600000
   H    105.39400000    28.10400000    57.75300000
   H    107.35000000    26.39000000    58.99000000
  Ca    111.30900000    23.64000000    63.86000000
   O    113.31900000    22.06000000    63.45000000
   H    113.90900000    21.53000000    63.98000000
   H    113.03900000    21.47000000    62.75000000
   O    110.54900000    25.73000000    62.48000000
   H    110.41900000    25.96000000    61.56000000
   H    110.98900000    26.48000000    62.87000000
   O    113.40900000    24.82000000    62.67000000
   H    113.74900000    25.66000000    62.99000000
   H    114.15900000    24.40000000    62.25000000
   O    111.26900000    21.91000000    65.82000000
   H    110.87900000    21.04000000    65.72000000
   H    111.62900000    21.92000000    66.71000000

Ca 1.00



