%chk=loop1.cluster112.chk
%nprocshared=20
%mem=10GB
%nosave
#b3lyp/svp scf=(tight,noincore,xqc) Test 
#IOP(5/87=12) Density=Current Pop=(MK,readradii) iop(6/33=2) iop(6/42=6)

loop1.cluster112 

   0  1 
   C     46.05000000    -7.38000000    28.45000000
   C     46.73000000    -8.32000000    29.44000000
   O     47.59000000    -9.15000000    29.15000000
   H     45.13800000    -6.98200000    28.89500000
   H     46.72300000    -6.55800000    28.20700000
   H     45.80100000    -7.92700000    27.54100000
   N     46.43000000    -8.26000000    30.74000000
   C     47.10000000    -9.01000000    31.78000000
   C     46.17000000    -9.76000000    32.73000000
   O     46.46000000    -9.89000000    33.92000000
   C     48.02000000    -8.08000000    32.57000000
   C     47.41000000    -6.88000000    33.29000000
   O     46.47000000    -6.21000000    32.81000000
   O     47.86000000    -6.62000000    34.43000000
   H     45.81000000    -7.50000000    30.98000000
   H     47.71000000    -9.79000000    31.32000000
   H     48.88000000    -7.76000000    31.98000000
   H     48.41000000    -8.79000000    33.30000000
   N     44.94000000   -10.02000000    32.28000000
   C     43.89000000   -10.52000000    33.14000000
   C     43.35000000   -11.87000000    32.68000000
   O     42.14000000   -11.96000000    32.49000000
   C     42.86000000    -9.40000000    33.25000000
   C     43.61000000    -8.15000000    33.71000000
   C     42.62000000    -7.12000000    34.24000000
   C     43.42000000    -6.10000000    35.04000000
   N     44.35000000    -5.35000000    34.18000000
   H     44.79000000   -10.00000000    31.28000000
   H     44.25000000   -10.71000000    34.15000000
   H     42.06000000    -9.57000000    33.97000000
   H     42.34000000    -9.31000000    32.30000000
   H     44.18000000    -7.77000000    32.86000000
   H     44.37000000    -8.35000000    34.47000000
   H     41.92000000    -7.67000000    34.87000000
   H     42.10000000    -6.62000000    33.43000000
   H     43.97000000    -6.53000000    35.88000000
   H     42.66000000    -5.40000000    35.38000000
   H     43.79000000    -5.03000000    33.40000000
   H     44.75000000    -4.55000000    34.65000000
   H     45.13000000    -5.75000000    33.69000000
   N     44.09000000   -12.96000000    32.47000000
   C     45.44000000   -13.36000000    32.84000000
   C     45.82000000   -13.06000000    34.28000000
   O     44.99000000   -12.68000000    35.10000000
   C     46.41000000   -12.83000000    31.79000000
   C     47.17000000   -13.82000000    30.92000000
   O     48.36000000   -13.53000000    30.65000000
   O     46.66000000   -14.95000000    30.72000000
   H     43.58000000   -13.68000000    31.97000000
   H     45.43000000   -14.45000000    32.82000000
   H     47.14000000   -12.24000000    32.34000000
   H     45.84000000   -12.17000000    31.13000000
   N     46.99000000   -13.51000000    34.73000000
   C     48.09000000   -14.13000000    34.01000000
   C     49.20000000   -14.71000000    34.86000000
   O     49.09000000   -15.03000000    36.04000000
   H     47.17000000   -13.45000000    35.73000000
   H     48.60000000   -13.33000000    33.46000000
   H     47.78000000   -14.88000000    33.29000000
   N     50.34000000   -15.03000000    34.24000000
   C     50.89000000   -14.65000000    32.95000000
   C     51.31000000   -13.19000000    32.95000000
   O     51.01000000   -12.49000000    31.99000000
   C     52.06000000   -15.59000000    32.66000000
   C     52.46000000   -15.24000000    31.24000000
   O     53.54000000   -15.78000000    30.91000000
   O     51.65000000   -14.84000000    30.38000000
   H     50.98000000   -15.47000000    34.88000000
   H     50.15000000   -14.78000000    32.15000000
   H     51.70000000   -16.62000000    32.71000000
   H     52.86000000   -15.32000000    33.35000000
   N     52.04000000   -12.67000000    33.95000000
   C     52.33000000   -11.26000000    34.12000000
   C     53.51000000   -10.74000000    33.32000000
   O     54.03000000    -9.69000000    33.69000000
   H     52.47000000   -13.29000000    34.62000000
   H     52.34000000   -10.92000000    35.15000000
   H     51.41000000   -10.79000000    33.77000000
   N     53.78000000   -11.27000000    32.12000000
   C     54.56000000   -10.69000000    31.05000000
   C     53.71000000   -10.76000000    29.79000000
   O     52.82000000   -11.57000000    29.56000000
   C     55.98000000   -11.22000000    30.90000000
   C     55.88000000   -12.68000000    30.48000000
   O     56.60000000   -11.16000000    32.16000000
   H     53.33000000   -12.15000000    31.92000000
   H     54.68000000    -9.64000000    31.34000000
   H     56.47000000   -10.59000000    30.16000000
   H     57.56000000   -11.11000000    32.14000000
   H     56.93000000   -12.92000000    30.29000000
   H     55.36000000   -13.23000000    31.27000000
   H     55.43000000   -12.90000000    29.52000000
   N     53.98000000    -9.78000000    28.91000000
   C     53.24000000    -9.59000000    27.69000000
   C     54.25000000    -9.52000000    26.55000000
   O     54.76000000    -8.43000000    26.32000000
   C     52.29000000    -8.39000000    27.70000000
   C     51.61000000    -8.30000000    26.35000000
   C     52.93000000    -7.10000000    28.21000000
   C     50.35000000    -7.43000000    26.37000000
   H     54.81000000    -9.26000000    29.15000000
   H     52.64000000   -10.49000000    27.52000000
   H     51.53000000    -8.75000000    28.39000000
   H     51.26000000    -9.29000000    26.06000000
   H     52.28000000    -7.83000000    25.63000000
   H     53.21000000    -6.56000000    27.30000000
   H     52.23000000    -6.48000000    28.77000000
   H     53.83000000    -7.39000000    28.73000000
   H     50.54000000    -6.58000000    27.03000000
   H     50.06000000    -7.23000000    25.34000000
   H     49.58000000    -8.04000000    26.85000000
   N     54.55000000   -10.71000000    26.02000000
   C     55.39000000   -10.77000000    24.84000000
   C     54.72000000   -11.37000000    23.61000000
   O     55.34000000   -11.33000000    22.56000000
   C     56.75000000   -11.43000000    25.04000000
   C     56.50000000   -12.93000000    25.23000000
   O     57.46000000   -10.86000000    26.12000000
   H     54.12000000   -11.53000000    26.42000000
   H     55.53000000    -9.73000000    24.53000000
   H     57.37000000   -11.36000000    24.14000000
   H     57.90000000   -10.10000000    25.74000000
   H     55.69000000   -13.09000000    25.94000000
   H     56.41000000   -13.58000000    24.36000000
   H     57.42000000   -13.30000000    25.68000000
   N     53.50000000   -11.90000000    23.73000000
   C     52.85000000   -12.77000000    22.78000000
   C     53.51000000   -14.13000000    22.61000000
   O     54.64000000   -14.36000000    23.03000000
   C     52.63000000   -12.17000000    21.39000000
   C     52.16000000   -10.72000000    21.47000000
   O     51.69000000   -12.86000000    20.59000000
   H     53.09000000   -11.87000000    24.66000000
   H     51.84000000   -12.95000000    23.13000000
   H     53.60000000   -12.18000000    20.88000000
   H     51.43000000   -12.18000000    19.97000000
   H     53.03000000   -10.13000000    21.75000000
   H     51.82000000   -10.35000000    20.50000000
   H     51.40000000   -10.63000000    22.24000000
   N     52.72000000   -15.11000000    22.15000000
   C     53.13000000   -16.46000000    21.78000000
   C     52.40000000   -17.65000000    22.38000000
   O     52.93000000   -18.74000000    22.22000000
   C     53.15000000   -16.47000000    20.25000000
   C     54.39000000   -15.71000000    19.81000000
   C     54.69000000   -16.05000000    18.35000000
   C     56.03000000   -15.53000000    17.85000000
   N     56.23000000   -15.70000000    16.40000000
   H     51.87000000   -14.79000000    21.72000000
   H     54.15000000   -16.60000000    22.11000000
   H     52.31000000   -15.89000000    19.87000000
   H     53.20000000   -17.50000000    19.89000000
   H     55.28000000   -15.95000000    20.40000000
   H     54.27000000   -14.64000000    20.00000000
   H     53.90000000   -15.57000000    17.79000000
   H     54.65000000   -17.12000000    18.11000000
   H     56.81000000   -16.14000000    18.32000000
   H     56.16000000   -14.48000000    18.09000000
   H     55.78000000   -14.94000000    15.92000000
   H     57.19000000   -15.81000000    16.11000000
   H     55.68000000   -16.51000000    16.13000000
   N     51.29000000   -17.57000000    23.11000000
   C     50.27000000   -16.59000000    23.42000000
   C     49.75000000   -15.70000000    22.30000000
   O     49.66000000   -14.48000000    22.37000000
   C     50.54000000   -15.79000000    24.69000000
   C     49.37000000   -15.13000000    25.41000000
   C     49.74000000   -14.44000000    26.72000000
   O     50.27000000   -13.30000000    26.73000000
   O     49.69000000   -15.05000000    27.80000000
   H     51.03000000   -18.49000000    23.44000000
   H     49.43000000   -17.23000000    23.71000000
   H     51.41000000   -15.14000000    24.57000000
   H     50.85000000   -16.55000000    25.41000000
   H     48.62000000   -15.86000000    25.73000000
   H     48.76000000   -14.49000000    24.77000000
   N     49.47000000   -16.40000000    21.20000000
   C     48.96000000   -15.83000000    19.96000000
   H     48.07500000   -15.23100000    20.17300000
   H     49.72500000   -15.19800000    19.50800000
   H     48.69800000   -16.63300000    19.27100000
   H     49.65000000   -17.38000000    21.33000000
  Ca     50.37000000   -12.80900000    29.36000000
   O     48.24000000   -11.82900000    28.20000000
   H     47.90000000   -10.95900000    28.43000000
   H     47.46000000   -12.37900000    28.13000000
   O     49.94000000   -10.25900000    30.02000000
   H     49.19000000    -9.80900000    29.64000000
   H     50.47000000    -9.56900000    30.41000000

Ca 1.00



