%chk=loop3.cluster192.chk
%nprocshared=20
%mem=10GB
%nosave
#b3lyp/svp scf=(tight,noincore,xqc) Test 
#IOP(5/87=12) Density=Current Pop=(MK,readradii) iop(6/33=2) iop(6/42=6)

loop3.cluster192 

   0  1 
   C     94.80000000    57.37000000    31.91000000
   C     95.74000000    56.21000000    32.19000000
   O     95.62000000    55.59000000    33.25000000
   H     93.88700000    57.24500000    32.49200000
   H     95.28300000    58.30600000    32.19000000
   H     94.55400000    57.39100000    30.84800000
   N     96.60000000    55.84000000    31.24000000
   C     97.42000000    54.65000000    31.31000000
   C     98.55000000    54.73000000    32.33000000
   O     99.18000000    55.77000000    32.50000000
   C     97.96000000    54.28000000    29.93000000
   C     98.58000000    52.89000000    29.94000000
   O     97.85000000    51.92000000    30.24000000
   O     99.81000000    52.76000000    29.75000000
   H     96.59000000    56.43000000    30.42000000
   H     96.76000000    53.82000000    31.58000000
   H     98.63000000    55.03000000    29.51000000
   H     97.09000000    54.19000000    29.29000000
   N     98.80000000    53.58000000    32.96000000
   C     99.68000000    53.46000000    34.11000000
   C    101.15000000    53.60000000    33.74000000
   O    101.93000000    53.81000000    34.67000000
   C     99.41000000    52.22000000    34.96000000
   C     99.46000000    50.87000000    34.25000000
   C     99.05000000    49.62000000    35.01000000
   C     97.58000000    49.65000000    35.44000000
   N     97.26000000    48.36000000    36.05000000
   H     98.20000000    52.78000000    32.82000000
   H     99.51000000    54.28000000    34.81000000
   H     98.39000000    52.26000000    35.32000000
   H    100.09000000    52.24000000    35.81000000
   H    100.48000000    50.74000000    33.89000000
   H     98.77000000    50.90000000    33.41000000
   H     99.78000000    49.54000000    35.81000000
   H     99.18000000    48.74000000    34.39000000
   H     96.96000000    49.88000000    34.57000000
   H     97.57000000    50.46000000    36.17000000
   H     96.28000000    48.16000000    35.95000000
   H     97.74000000    47.57000000    35.65000000
   H     97.43000000    48.39000000    37.05000000
   N    101.59000000    53.44000000    32.49000000
   C    102.91000000    53.70000000    31.96000000
   C    102.88000000    54.78000000    30.89000000
   O    103.94000000    55.09000000    30.35000000
   C    103.38000000    52.33000000    31.49000000
   C    102.54000000    51.76000000    30.35000000
   O    102.71000000    52.27000000    29.23000000
   O    101.80000000    50.77000000    30.54000000
   H    100.87000000    53.21000000    31.81000000
   H    103.53000000    54.12000000    32.76000000
   H    103.36000000    51.68000000    32.36000000
   H    104.42000000    52.38000000    31.17000000
   N    101.77000000    55.47000000    30.63000000
   C    101.47000000    56.60000000    29.76000000
   C    101.91000000    56.52000000    28.30000000
   O    102.16000000    57.49000000    27.59000000
   H    100.94000000    55.08000000    31.04000000
   H    101.89000000    57.52000000    30.16000000
   H    100.38000000    56.67000000    29.72000000
   N    101.88000000    55.31000000    27.76000000
   C    102.04000000    55.05000000    26.34000000
   C    101.10000000    54.02000000    25.73000000
   O    100.80000000    53.02000000    26.39000000
   C    103.50000000    54.69000000    26.12000000
   C    103.87000000    54.25000000    24.71000000
   N    104.57000000    55.15000000    24.02000000
   O    103.54000000    53.16000000    24.23000000
   H    101.86000000    54.49000000    28.35000000
   H    101.76000000    55.93000000    25.75000000
   H    103.82000000    53.97000000    26.88000000
   H    104.04000000    55.58000000    26.44000000
   H    104.92000000    56.04000000    24.36000000
   H    104.76000000    54.94000000    23.06000000
   N    100.72000000    54.22000000    24.47000000
   C     99.51000000    53.65000000    23.91000000
   C     99.37000000    52.14000000    23.77000000
   O     98.24000000    51.68000000    23.64000000
   H    101.05000000    55.06000000    24.02000000
   H     99.56000000    53.95000000    22.86000000
   H     98.58000000    54.07000000    24.29000000
   N    100.49000000    51.43000000    23.77000000
   C    100.42000000    50.00000000    23.55000000
   C    100.13000000    49.06000000    24.70000000
   O    100.47000000    49.40000000    25.83000000
   C    101.72000000    49.62000000    22.83000000
   C    101.89000000    50.05000000    21.40000000
   C    101.62000000    49.18000000    20.34000000
   C    102.28000000    51.37000000    21.12000000
   C    101.74000000    49.55000000    19.00000000
   C    102.37000000    51.78000000    19.78000000
   C    102.17000000    50.86000000    18.73000000
   O    102.34000000    51.31000000    17.45000000
   H    101.36000000    51.88000000    24.01000000
   H     99.65000000    49.75000000    22.81000000
   H    101.82000000    48.53000000    22.90000000
   H    102.62000000    49.90000000    23.37000000
   H    101.32000000    48.20000000    20.69000000
   H    102.46000000    52.04000000    21.95000000
   H    101.63000000    48.78000000    18.25000000
   H    102.76000000    52.75000000    19.52000000
   H    102.74000000    52.18000000    17.46000000
   N     99.59000000    47.89000000    24.33000000
   C     99.24000000    46.80000000    25.22000000
   C    100.39000000    46.28000000    26.07000000
   O    101.35000000    46.96000000    26.43000000
   C     98.00000000    47.19000000    26.02000000
   C     97.60000000    46.38000000    27.25000000
   C     96.82000000    47.32000000    25.06000000
   C     96.47000000    46.98000000    28.08000000
   H     99.24000000    47.79000000    23.39000000
   H     99.02000000    45.95000000    24.57000000
   H     98.18000000    48.22000000    26.34000000
   H     98.47000000    46.18000000    27.86000000
   H     97.30000000    45.39000000    26.90000000
   H     95.94000000    47.73000000    25.56000000
   H     97.06000000    48.02000000    24.26000000
   H     96.66000000    46.30000000    24.74000000
   H     96.22000000    46.29000000    28.89000000
   H     96.94000000    47.89000000    28.44000000
   H     95.55000000    47.03000000    27.50000000
   N    100.36000000    44.97000000    26.30000000
   C    101.36000000    44.31000000    27.12000000
   C    101.47000000    42.82000000    26.81000000
   O    102.45000000    42.23000000    27.25000000
   C    101.06000000    44.54000000    28.60000000
   O     99.77000000    44.07000000    28.90000000
   H     99.51000000    44.51000000    26.02000000
   H    102.32000000    44.74000000    26.87000000
   H    101.07000000    45.60000000    28.84000000
   H    101.77000000    44.09000000    29.30000000
   H     99.57000000    44.38000000    29.78000000
   N    100.53000000    42.20000000    26.09000000
   C    100.34000000    40.77000000    25.95000000
   C    100.52000000    40.00000000    27.25000000
   O    101.47000000    39.22000000    27.35000000
   C    101.34000000    40.32000000    24.90000000
   H     99.73000000    42.71000000    25.74000000
   H     99.30000000    40.62000000    25.65000000
   H    101.16000000    40.80000000    23.94000000
   H    102.37000000    40.52000000    25.20000000
   H    101.24000000    39.25000000    24.71000000
   N     99.75000000    40.18000000    28.33000000
   C     98.45000000    40.82000000    28.35000000
   C     97.27000000    39.99000000    27.88000000
   O     97.31000000    38.76000000    27.86000000
   C     98.33000000    41.38000000    29.76000000
   H     99.87000000    39.58000000    29.13000000
   H     98.53000000    41.67000000    27.66000000
   H     99.28000000    41.75000000    30.13000000
   H     97.62000000    42.21000000    29.75000000
   H     97.97000000    40.60000000    30.43000000
   N     96.14000000    40.55000000    27.46000000
   C     95.76000000    41.95000000    27.53000000
   C     94.92000000    42.51000000    26.39000000
   O     94.91000000    43.71000000    26.11000000
   C     94.88000000    42.04000000    28.77000000
   C     94.56000000    43.40000000    29.38000000
   C     93.67000000    43.24000000    30.61000000
   O     92.45000000    43.28000000    30.34000000
   O     94.14000000    43.31000000    31.76000000
   H     95.52000000    39.92000000    26.97000000
   H     96.67000000    42.54000000    27.45000000
   H     95.35000000    41.41000000    29.53000000
   H     93.90000000    41.69000000    28.46000000
   H     94.00000000    43.99000000    28.65000000
   H     95.49000000    43.94000000    29.56000000
   N     94.15000000    41.65000000    25.72000000
   C     93.10000000    41.99000000    24.78000000
   H     92.26000000    42.43000000    25.31800000
   H     93.48100000    42.70700000    24.05300000
   H     92.76800000    41.08900000    24.26300000
   H     94.24000000    40.70000000    26.05000000
  Ca    100.72300000    50.99000000    28.13000000
   O     98.22000000    51.16000000    26.98000000
   H     97.60000000    50.56000000    26.56000000
   H     97.75000000    51.99000000    27.02000000
   O    102.36300000    48.83000000    28.07000000
   H    102.28300000    48.02000000    27.57000000
   H    102.86300000    48.59000000    28.85000000
   O    103.10300000    51.10000000    26.02000000
   H    103.21300000    51.87000000    25.46000000
   H    103.40300000    50.37000000    25.48000000
   O     98.91000000    49.55000000    29.62000000
   H     98.34000000    50.28000000    29.84000000
   H     98.59000000    48.82000000    30.14000000

Ca 1.00



