%chk=loop2.cluster84.chk
%nprocshared=20
%mem=10GB
%nosave
#b3lyp/svp scf=(tight,noincore,xqc) Test 
#IOP(5/87=12) Density=Current Pop=(MK,readradii) iop(6/33=2) iop(6/42=6)

loop2.cluster84 

   -2  1 
   C     92.75000000    97.25000000    29.19000000
   C     92.67000000    98.54000000    30.00000000
   O     91.60000000    99.13000000    29.96000000
   H     93.79300000    96.95100000    29.08700000
   H     92.19600000    96.46400000    29.70300000
   H     92.32000000    97.41300000    28.20200000
   N     93.76000000    99.02000000    30.60000000
   C     93.81000000   100.35000000    31.18000000
   C     92.93000000   100.63000000    32.39000000
   O     92.92000000   101.74000000    32.92000000
   C     95.30000000   100.44000000    31.46000000
   C     95.68000000   101.88000000    31.80000000
   O     96.35000000   102.12000000    32.83000000
   O     95.36000000   102.83000000    31.06000000
   H     94.62000000    98.49000000    30.56000000
   H     93.62000000   101.02000000    30.34000000
   H     95.87000000   100.11000000    30.59000000
   H     95.49000000    99.74000000    32.28000000
   N     92.09000000    99.69000000    32.83000000
   C     91.47000000    99.71000000    34.14000000
   C     91.26000000    98.32000000    34.72000000
   O     91.03000000    97.37000000    33.98000000
   C     90.13000000   100.44000000    34.08000000
   H     91.96000000    98.85000000    32.28000000
   H     92.15000000   100.19000000    34.84000000
   H     89.70000000   100.84000000    34.99000000
   H     90.22000000   101.26000000    33.36000000
   H     89.41000000    99.81000000    33.55000000
   N     91.27000000    98.03000000    36.02000000
   C     91.04000000    99.05000000    37.03000000
   C     91.84000000    98.64000000    38.26000000
   O     91.92000000    97.44000000    38.51000000
   C     89.58000000    99.07000000    37.46000000
   C     89.16000000   100.27000000    38.30000000
   O     89.97000000   101.22000000    38.40000000
   O     88.06000000   100.20000000    38.89000000
   H     91.10000000    97.06000000    36.24000000
   H     91.32000000   100.04000000    36.66000000
   H     89.34000000    98.13000000    37.95000000
   H     88.96000000    99.18000000    36.57000000
   N     92.34000000    99.57000000    39.07000000
   C     93.22000000    99.32000000    40.20000000
   C     94.64000000    99.11000000    39.70000000
   O     95.13000000    99.66000000    38.72000000
   H     92.18000000   100.54000000    38.84000000
   H     92.89000000    98.38000000    40.63000000
   H     93.05000000   100.13000000    40.92000000
   N     95.44000000    98.25000000    40.33000000
   C     95.16000000    97.75000000    41.66000000
   C     94.44000000    96.41000000    41.65000000
   O     94.56000000    95.61000000    42.58000000
   C     96.46000000    97.68000000    42.46000000
   C     96.19000000    97.89000000    43.94000000
   N     97.28000000    97.70000000    44.69000000
   O     95.13000000    98.31000000    44.42000000
   H     96.35000000    98.04000000    39.94000000
   H     94.57000000    98.50000000    42.18000000
   H     97.25000000    98.37000000    42.19000000
   H     96.97000000    96.72000000    42.32000000
   H     98.15000000    97.39000000    44.30000000
   H     97.20000000    97.93000000    45.67000000
   N     93.78000000    96.09000000    40.54000000
   C     92.88000000    94.96000000    40.53000000
   C     91.60000000    95.20000000    41.32000000
   O     91.28000000    94.50000000    42.28000000
   H     93.67000000    96.80000000    39.83000000
   H     93.41000000    94.11000000    40.97000000
   H     92.60000000    94.71000000    39.50000000
   N     90.93000000    96.30000000    40.97000000
   C     89.77000000    96.86000000    41.63000000
   C     88.51000000    96.56000000    40.84000000
   O     87.67000000    97.44000000    40.64000000
   C     90.01000000    98.35000000    41.89000000
   C     89.03000000    98.99000000    42.86000000
   O     91.21000000    98.49000000    42.62000000
   H     91.33000000    96.89000000    40.25000000
   H     89.73000000    96.37000000    42.60000000
   H     90.03000000    98.99000000    41.01000000
   H     91.27000000    99.45000000    42.67000000
   H     89.44000000    99.88000000    43.34000000
   H     88.21000000    99.31000000    42.22000000
   H     88.65000000    98.23000000    43.55000000
   N     88.36000000    95.40000000    40.19000000
   C     87.16000000    95.08000000    39.46000000
   C     85.95000000    94.89000000    40.37000000
   O     86.08000000    94.32000000    41.45000000
   C     87.35000000    93.86000000    38.57000000
   C     87.93000000    94.25000000    37.22000000
   C     88.19000000    92.75000000    39.20000000
   C     89.35000000    94.78000000    37.08000000
   H     88.95000000    94.63000000    40.46000000
   H     86.97000000    95.94000000    38.81000000
   H     86.36000000    93.45000000    38.37000000
   H     87.35000000    95.09000000    36.83000000
   H     87.81000000    93.46000000    36.48000000
   H     88.15000000    91.85000000    38.58000000
   H     89.23000000    93.08000000    39.26000000
   H     87.86000000    92.66000000    40.23000000
   H     90.10000000    93.99000000    37.03000000
   H     89.52000000    95.20000000    36.09000000
   H     89.54000000    95.60000000    37.77000000
   N     84.78000000    95.26000000    39.83000000
   C     83.56000000    94.93000000    40.53000000
   C     82.54000000    94.20000000    39.68000000
   O     82.06000000    94.75000000    38.69000000
   C     82.97000000    96.19000000    41.16000000
   C     83.97000000    97.01000000    41.95000000
   O     84.00000000    96.91000000    43.20000000
   O     84.57000000    97.93000000    41.36000000
   H     84.77000000    95.60000000    38.87000000
   H     83.78000000    94.25000000    41.36000000
   H     82.10000000    95.94000000    41.76000000
   H     82.55000000    96.84000000    40.39000000
   N     82.31000000    92.94000000    40.08000000
   C     81.44000000    91.97000000    39.46000000
   C     81.79000000    91.89000000    37.98000000
   O     82.91000000    91.57000000    37.59000000
   C     81.53000000    90.58000000    40.09000000
   C     80.38000000    89.71000000    39.62000000
   C     80.51000000    89.18000000    38.33000000
   C     79.19000000    89.60000000    40.34000000
   C     79.40000000    88.52000000    37.78000000
   C     78.11000000    88.87000000    39.82000000
   C     78.22000000    88.36000000    38.52000000
   H     82.65000000    92.71000000    41.01000000
   H     80.41000000    92.32000000    39.44000000
   H     81.51000000    90.78000000    41.16000000
   H     82.53000000    90.23000000    39.82000000
   H     81.37000000    89.31000000    37.69000000
   H     79.10000000    90.13000000    41.28000000
   H     79.55000000    88.13000000    36.79000000
   H     77.17000000    88.85000000    40.35000000
   H     77.35000000    87.90000000    38.08000000
   N     80.84000000    92.12000000    37.07000000
   C     80.98000000    91.69000000    35.69000000
   C     82.00000000    92.51000000    34.92000000
   O     82.26000000    92.17000000    33.76000000
   C     79.56000000    91.74000000    35.15000000
   C     79.02000000    93.00000000    35.84000000
   C     79.57000000    92.78000000    37.25000000
   H     81.18000000    90.61000000    35.64000000
   H     79.59000000    91.85000000    34.07000000
   H     79.01000000    90.86000000    35.48000000
   H     79.43000000    93.84000000    35.27000000
   H     77.94000000    93.13000000    35.87000000
   H     79.73000000    93.75000000    37.71000000
   H     78.93000000    92.19000000    37.90000000
   N     82.52000000    93.57000000    35.54000000
   C     83.64000000    94.34000000    35.04000000
   C     84.88000000    93.47000000    34.81000000
   O     85.71000000    93.88000000    34.01000000
   C     84.00000000    95.36000000    36.12000000
   C     84.92000000    96.54000000    35.83000000
   C     85.25000000    97.39000000    37.04000000
   O     84.36000000    97.71000000    37.87000000
   O     86.42000000    97.73000000    37.33000000
   H     82.21000000    93.74000000    36.49000000
   H     83.37000000    94.81000000    34.10000000
   H     84.58000000    94.92000000    36.93000000
   H     83.14000000    95.87000000    36.57000000
   H     84.38000000    97.15000000    35.11000000
   H     85.87000000    96.19000000    35.43000000
   N     84.98000000    92.30000000    35.44000000
   C     86.02000000    91.30000000    35.27000000
   H     86.90700000    91.60100000    35.82800000
   H     85.66500000    90.33900000    35.64300000
   H     86.26900000    91.21000000    34.21300000
   H     84.22000000    92.08000000    36.06000000
  Ca     85.72000000    99.14000000    39.53000000
   O     85.22000000   100.68900000    37.49000000
   H     84.40000000   101.13900000    37.30000000
   H     85.83000000   100.99900000    36.82000000
   O     85.95000000   101.20900000    41.33000000
   H     85.77000000   100.79900000    42.18000000
   H     86.09000000   102.12900000    41.53000000

Ca 1.00



