%chk=loop2.cluster105.chk
%nprocshared=20
%mem=10GB
%nosave
#b3lyp/svp scf=(tight,noincore,xqc) Test 
#IOP(5/87=12) Density=Current Pop=(MK,readradii) iop(6/33=2) iop(6/42=6)

loop2.cluster105 

   -2  1 
   C     49.06000000    46.82000000    19.31000000
   C     50.12000000    47.01000000    18.24000000
   O     50.15000000    46.22000000    17.29000000
   H     48.13700000    46.47100000    18.84800000
   H     49.40400000    46.08300000    20.03600000
   H     48.87700000    47.76900000    19.81400000
   N     51.02000000    47.96000000    18.46000000
   C     52.03000000    48.49000000    17.57000000
   C     51.42000000    49.08000000    16.31000000
   O     50.76000000    50.12000000    16.38000000
   C     52.88000000    49.57000000    18.23000000
   C     54.05000000    49.94000000    17.33000000
   O     54.05000000    50.99000000    16.67000000
   O     55.04000000    49.17000000    17.21000000
   H     50.84000000    48.49000000    19.31000000
   H     52.71000000    47.68000000    17.30000000
   H     53.35000000    49.34000000    19.19000000
   H     52.28000000    50.44000000    18.48000000
   N     51.72000000    48.52000000    15.14000000
   C     51.21000000    49.06000000    13.89000000
   C     50.60000000    47.93000000    13.08000000
   O     51.27000000    46.92000000    12.90000000
   C     52.29000000    49.83000000    13.14000000
   H     52.20000000    47.63000000    15.11000000
   H     50.46000000    49.81000000    14.15000000
   H     52.80000000    50.62000000    13.71000000
   H     53.04000000    49.14000000    12.75000000
   H     51.84000000    50.30000000    12.27000000
   N     49.36000000    47.84000000    12.60000000
   C     48.30000000    48.82000000    12.55000000
   C     47.50000000    48.80000000    13.85000000
   O     47.28000000    47.76000000    14.47000000
   C     47.38000000    48.74000000    11.34000000
   C     46.86000000    47.33000000    11.09000000
   O     47.61000000    46.62000000    10.39000000
   O     45.78000000    46.96000000    11.59000000
   H     49.11000000    46.88000000    12.39000000
   H     48.72000000    49.83000000    12.55000000
   H     47.94000000    49.06000000    10.46000000
   H     46.55000000    49.43000000    11.48000000
   N     47.01000000    50.00000000    14.15000000
   C     46.15000000    50.34000000    15.26000000
   C     46.89000000    51.15000000    16.32000000
   O     48.12000000    51.13000000    16.30000000
   H     47.16000000    50.74000000    13.47000000
   H     45.76000000    49.46000000    15.79000000
   H     45.39000000    51.03000000    14.90000000
   N     46.26000000    51.80000000    17.30000000
   C     44.88000000    51.77000000    17.73000000
   C     44.86000000    51.09000000    19.09000000
   O     45.28000000    51.68000000    20.09000000
   C     44.26000000    53.16000000    17.87000000
   C     44.28000000    53.82000000    16.50000000
   N     44.79000000    55.05000000    16.42000000
   O     43.90000000    53.25000000    15.48000000
   H     46.85000000    52.24000000    17.99000000
   H     44.21000000    51.29000000    17.02000000
   H     44.92000000    53.74000000    18.52000000
   H     43.22000000    53.12000000    18.18000000
   H     45.12000000    55.58000000    17.22000000
   H     44.71000000    55.46000000    15.50000000
   N     44.34000000    49.86000000    19.14000000
   C     44.20000000    49.07000000    20.35000000
   C     43.42000000    47.76000000    20.33000000
   O     43.33000000    47.09000000    21.35000000
   H     43.89000000    49.63000000    18.27000000
   H     43.64000000    49.68000000    21.06000000
   H     45.15000000    48.96000000    20.87000000
   N     43.04000000    47.33000000    19.12000000
   C     42.37000000    46.05000000    18.97000000
   C     43.14000000    45.14000000    18.02000000
   O     43.98000000    45.55000000    17.23000000
   C     40.98000000    46.26000000    18.39000000
   C     39.98000000    46.67000000    19.47000000
   O     40.97000000    47.22000000    17.36000000
   H     43.06000000    48.00000000    18.38000000
   H     42.32000000    45.57000000    19.94000000
   H     40.60000000    45.40000000    17.84000000
   H     41.02000000    46.86000000    16.48000000
   H     38.98000000    46.46000000    19.08000000
   H     40.13000000    46.09000000    20.38000000
   H     40.03000000    47.74000000    19.67000000
   N     42.68000000    43.88000000    17.95000000
   C     43.36000000    42.84000000    17.21000000
   C     42.42000000    41.90000000    16.47000000
   O     41.40000000    41.42000000    16.96000000
   C     44.44000000    42.08000000    17.98000000
   C     45.61000000    43.04000000    18.24000000
   C     44.04000000    41.40000000    19.28000000
   C     46.85000000    42.57000000    18.98000000
   H     41.91000000    43.60000000    18.54000000
   H     43.81000000    43.38000000    16.38000000
   H     44.89000000    41.26000000    17.42000000
   H     45.25000000    43.89000000    18.82000000
   H     45.91000000    43.29000000    17.22000000
   H     43.08000000    40.91000000    19.15000000
   H     44.80000000    40.64000000    19.48000000
   H     44.05000000    42.08000000    20.14000000
   H     46.69000000    42.38000000    20.04000000
   H     47.34000000    41.69000000    18.55000000
   H     47.58000000    43.35000000    18.77000000
   N     42.78000000    41.69000000    15.21000000
   C     42.11000000    40.85000000    14.24000000
   C     42.97000000    39.91000000    13.42000000
   O     44.16000000    40.21000000    13.26000000
   C     41.33000000    41.71000000    13.24000000
   C     42.14000000    42.89000000    12.73000000
   O     42.14000000    43.99000000    13.32000000
   O     42.91000000    42.78000000    11.75000000
   H     43.54000000    42.24000000    14.82000000
   H     41.42000000    40.17000000    14.75000000
   H     40.42000000    42.13000000    13.67000000
   H     40.82000000    41.15000000    12.46000000
   N     42.49000000    38.78000000    12.90000000
   C     43.36000000    37.84000000    12.20000000
   C     44.50000000    37.38000000    13.10000000
   O     44.28000000    37.03000000    14.26000000
   C     42.53000000    36.67000000    11.68000000
   C     43.46000000    35.91000000    10.77000000
   C     44.18000000    34.84000000    11.31000000
   C     43.52000000    36.15000000     9.39000000
   C     45.08000000    34.19000000    10.46000000
   C     44.39000000    35.44000000     8.55000000
   C     45.23000000    34.47000000     9.10000000
   H     41.50000000    38.59000000    12.94000000
   H     43.75000000    38.47000000    11.40000000
   H     41.70000000    37.09000000    11.10000000
   H     42.29000000    35.96000000    12.48000000
   H     44.04000000    34.51000000    12.32000000
   H     42.92000000    36.97000000     9.04000000
   H     45.67000000    33.42000000    10.94000000
   H     44.55000000    35.78000000     7.53000000
   H     45.80000000    33.77000000     8.50000000
   N     45.73000000    37.37000000    12.59000000
   C     46.85000000    36.73000000    13.25000000
   C     47.65000000    37.61000000    14.20000000
   O     48.74000000    37.29000000    14.67000000
   C     47.75000000    36.17000000    12.15000000
   C     47.68000000    37.32000000    11.16000000
   C     46.23000000    37.78000000    11.29000000
   H     46.50000000    35.84000000    13.77000000
   H     48.77000000    36.10000000    12.52000000
   H     47.38000000    35.20000000    11.82000000
   H     48.37000000    38.09000000    11.50000000
   H     47.86000000    37.08000000    10.11000000
   H     46.21000000    38.86000000    11.16000000
   H     45.66000000    37.38000000    10.45000000
   N     47.17000000    38.81000000    14.54000000
   C     47.94000000    39.94000000    15.03000000
   C     48.14000000    39.84000000    16.54000000
   O     48.97000000    40.54000000    17.11000000
   C     47.25000000    41.27000000    14.79000000
   C     47.09000000    41.52000000    13.29000000
   C     46.43000000    42.88000000    13.09000000
   O     45.72000000    43.45000000    13.94000000
   O     46.69000000    43.47000000    12.02000000
   H     46.17000000    38.83000000    14.41000000
   H     48.93000000    39.81000000    14.59000000
   H     47.72000000    42.13000000    15.27000000
   H     46.28000000    41.11000000    15.28000000
   H     46.51000000    40.69000000    12.89000000
   H     48.09000000    41.59000000    12.87000000
   N     47.52000000    38.83000000    17.15000000
   C     47.45000000    38.68000000    18.59000000
   H     46.44400000    38.92500000    18.93200000
   H     47.68400000    37.65000000    18.86000000
   H     48.16700000    39.35200000    19.06100000
   H     46.95000000    38.23000000    16.58000000
  Ca     44.31000000    44.92000000    12.24000000
   O     44.86000000    46.21000000    14.57000000
   H     45.46000000    46.91000000    14.84000000
   H     44.77000000    45.66000000    15.34000000
   O     43.43000000    45.78000000     9.86000000
   H     43.99000000    46.35000000     9.34000000
   H     42.61000000    45.72000000     9.36000000
   O     46.00000000    44.50000000     9.74000000
   H     46.34000000    44.02000000    10.50000000
   H     46.37000000    45.38000000     9.83000000

Ca 1.00



