%chk=loop1.cluster147.chk
%nprocshared=20
%mem=10GB
%nosave
#b3lyp/svp scf=(tight,noincore,xqc) Test 
#IOP(5/87=12) Density=Current Pop=(MK,readradii) iop(6/33=2) iop(6/42=6)

loop1.cluster147 

   0  1 
   C     28.23000000    18.49000000    23.96000000
   C     27.26000000    17.49000000    23.35000000
   O     27.37000000    17.05000000    22.21000000
   H     29.12400000    18.55300000    23.34000000
   H     27.75600000    19.47000000    24.01400000
   H     28.50600000    18.16400000    24.96300000
   N     26.18000000    17.29000000    24.11000000
   C     25.00000000    16.50000000    23.81000000
   C     24.05000000    17.05000000    22.76000000
   O     22.98000000    16.45000000    22.66000000
   C     24.20000000    16.44000000    25.11000000
   C     23.71000000    17.79000000    25.59000000
   O     22.53000000    18.16000000    25.39000000
   O     24.57000000    18.48000000    26.19000000
   H     26.17000000    17.88000000    24.94000000
   H     25.27000000    15.47000000    23.58000000
   H     24.83000000    15.96000000    25.87000000
   H     23.29000000    15.86000000    24.97000000
   N     24.41000000    18.11000000    22.03000000
   C     23.63000000    18.74000000    20.98000000
   C     24.19000000    18.91000000    19.58000000
   O     25.00000000    19.80000000    19.34000000
   C     23.23000000    20.16000000    21.36000000
   C     22.75000000    20.37000000    22.79000000
   C     22.03000000    21.66000000    23.17000000
   C     21.12000000    21.53000000    24.39000000
   N     21.71000000    20.92000000    25.59000000
   H     25.37000000    18.41000000    22.08000000
   H     22.70000000    18.16000000    20.95000000
   H     22.47000000    20.60000000    20.71000000
   H     24.10000000    20.80000000    21.24000000
   H     23.53000000    20.21000000    23.54000000
   H     22.03000000    19.59000000    23.02000000
   H     21.43000000    21.91000000    22.30000000
   H     22.82000000    22.40000000    23.30000000
   H     20.36000000    20.84000000    24.03000000
   H     20.58000000    22.45000000    24.64000000
   H     21.02000000    20.76000000    26.31000000
   H     22.00000000    19.99000000    25.33000000
   H     22.42000000    21.52000000    25.98000000
   N     23.80000000    18.17000000    18.53000000
   C     23.03000000    16.95000000    18.42000000
   C     21.54000000    16.94000000    18.75000000
   O     20.95000000    17.79000000    19.40000000
   C     23.77000000    15.77000000    19.04000000
   C     25.15000000    15.52000000    18.44000000
   O     25.29000000    15.85000000    17.25000000
   O     26.11000000    15.26000000    19.21000000
   H     24.24000000    18.46000000    17.67000000
   H     23.02000000    16.77000000    17.35000000
   H     23.16000000    14.87000000    18.93000000
   H     23.82000000    15.89000000    20.12000000
   N     20.72000000    16.07000000    18.15000000
   C     21.06000000    15.01000000    17.23000000
   C     20.08000000    13.84000000    17.36000000
   O     18.90000000    14.15000000    17.53000000
   H     19.74000000    16.12000000    18.37000000
   H     22.07000000    14.62000000    17.30000000
   H     20.90000000    15.40000000    16.22000000
   N     20.56000000    12.60000000    17.25000000
   C     21.80000000    12.16000000    16.66000000
   C     23.00000000    12.12000000    17.61000000
   O     24.11000000    12.46000000    17.22000000
   C     21.57000000    10.86000000    15.90000000
   C     20.87000000     9.73000000    16.65000000
   O     20.66000000     9.72000000    17.88000000
   O     20.65000000     8.78000000    15.87000000
   H     19.95000000    11.84000000    17.52000000
   H     22.06000000    12.83000000    15.84000000
   H     22.55000000    10.49000000    15.60000000
   H     20.92000000    11.07000000    15.05000000
   N     22.73000000    11.82000000    18.88000000
   C     23.61000000    11.95000000    20.02000000
   C     24.90000000    11.14000000    19.90000000
   O     24.80000000     9.92000000    19.87000000
   H     21.75000000    11.62000000    19.02000000
   H     23.12000000    11.58000000    20.92000000
   H     23.90000000    12.97000000    20.26000000
   N     26.09000000    11.73000000    19.94000000
   C     27.38000000    11.11000000    20.20000000
   C     28.43000000    12.19000000    20.38000000
   O     28.49000000    13.23000000    19.73000000
   C     27.85000000    10.14000000    19.12000000
   C     29.15000000     9.47000000    19.57000000
   O     28.16000000    10.71000000    17.87000000
   H     26.05000000    12.74000000    19.92000000
   H     27.34000000    10.56000000    21.14000000
   H     27.13000000     9.33000000    19.02000000
   H     28.35000000     9.96000000    17.30000000
   H     29.19000000     8.49000000    19.10000000
   H     30.04000000    10.04000000    19.29000000
   H     29.21000000     9.34000000    20.65000000
   N     29.40000000    12.05000000    21.28000000
   C     30.49000000    12.96000000    21.57000000
   C     31.77000000    12.17000000    21.78000000
   O     32.00000000    11.57000000    22.82000000
   C     30.16000000    13.97000000    22.67000000
   C     31.36000000    14.85000000    23.04000000
   C     29.68000000    13.27000000    23.94000000
   C     31.97000000    15.67000000    21.91000000
   H     29.26000000    11.26000000    21.90000000
   H     30.69000000    13.68000000    20.78000000
   H     29.39000000    14.64000000    22.32000000
   H     32.16000000    14.17000000    23.33000000
   H     31.12000000    15.50000000    23.88000000
   H     30.43000000    12.66000000    24.45000000
   H     29.48000000    14.16000000    24.55000000
   H     28.69000000    12.82000000    23.85000000
   H     32.24000000    16.62000000    22.37000000
   H     32.95000000    15.37000000    21.56000000
   H     31.36000000    15.97000000    21.05000000
   N     32.67000000    12.23000000    20.79000000
   C     33.99000000    11.63000000    20.77000000
   C     35.09000000    12.45000000    20.13000000
   O     36.20000000    11.94000000    19.94000000
   C     33.96000000    10.25000000    20.12000000
   C     33.45000000    10.02000000    18.70000000
   O     33.13000000     9.38000000    20.85000000
   H     32.39000000    12.92000000    20.11000000
   H     34.41000000    11.58000000    21.78000000
   H     34.97000000     9.84000000    20.21000000
   H     33.34000000     9.46000000    21.79000000
   H     33.70000000     9.01000000    18.39000000
   H     32.37000000    10.16000000    18.65000000
   H     33.90000000    10.73000000    18.00000000
   N     34.86000000    13.72000000    19.78000000
   C     35.67000000    14.58000000    18.95000000
   C     35.96000000    14.00000000    17.57000000
   O     35.50000000    12.96000000    17.12000000
   C     36.88000000    15.15000000    19.69000000
   C     36.67000000    15.40000000    21.18000000
   O     37.32000000    16.39000000    19.18000000
   H     33.88000000    13.93000000    19.66000000
   H     35.06000000    15.46000000    18.74000000
   H     37.77000000    14.52000000    19.63000000
   H     37.96000000    16.71000000    19.83000000
   H     35.75000000    15.99000000    21.25000000
   H     36.51000000    14.41000000    21.60000000
   H     37.54000000    15.94000000    21.56000000
   N     36.57000000    14.85000000    16.74000000
   C     37.04000000    14.37000000    15.46000000
   C     36.15000000    14.50000000    14.23000000
   O     36.42000000    13.64000000    13.40000000
   C     38.32000000    15.15000000    15.13000000
   C     39.51000000    14.90000000    16.05000000
   C     39.95000000    13.44000000    16.08000000
   C     41.18000000    13.37000000    16.98000000
   N     42.44000000    13.82000000    16.37000000
   H     36.97000000    15.68000000    17.16000000
   H     37.27000000    13.31000000    15.50000000
   H     38.09000000    16.21000000    15.20000000
   H     38.66000000    14.92000000    14.12000000
   H     39.33000000    15.24000000    17.06000000
   H     40.33000000    15.51000000    15.66000000
   H     40.18000000    12.94000000    15.14000000
   H     39.13000000    12.91000000    16.57000000
   H     41.35000000    12.35000000    17.34000000
   H     40.97000000    13.98000000    17.86000000
   H     42.65000000    13.29000000    15.54000000
   H     42.29000000    14.80000000    16.15000000
   H     43.24000000    13.73000000    16.98000000
   N     35.14000000    15.34000000    13.99000000
   C     34.44000000    16.36000000    14.74000000
   C     35.39000000    17.45000000    15.22000000
   O     35.24000000    17.90000000    16.36000000
   C     33.41000000    15.76000000    15.68000000
   C     32.28000000    16.74000000    16.02000000
   C     31.04000000    16.11000000    16.63000000
   O     30.17000000    15.64000000    15.87000000
   O     30.77000000    16.19000000    17.85000000
   H     34.76000000    15.22000000    13.06000000
   H     33.79000000    16.83000000    14.00000000
   H     33.92000000    15.57000000    16.63000000
   H     32.89000000    14.92000000    15.22000000
   H     31.97000000    17.28000000    15.12000000
   H     32.77000000    17.48000000    16.65000000
   N     36.29000000    17.89000000    14.34000000
   C     37.22000000    18.97000000    14.59000000
   H     38.12600000    18.81200000    14.00400000
   H     36.76300000    19.91700000    14.30300000
   H     37.47300000    18.99400000    15.65000000
   H     36.28000000    17.48000000    13.41000000
  Ca     28.29000000    15.14000000    17.75000000
   O     28.75000000    13.68000000    14.83000000
   H     27.88000000    14.09000000    14.87000000
   H     29.36000000    14.40000000    14.99000000
   O     26.76000000    13.05000000    17.19000000
   H     27.03000000    12.16000000    16.94000000
   H     25.82000000    13.08000000    17.02000000
   O     27.79000000    17.82000000    17.58000000
   H     28.11000000    18.46000000    16.95000000
   H     27.56000000    18.34000000    18.35000000
   O     30.11000000    13.03000000    17.49000000
   H     30.55000000    12.86000000    16.65000000
   H     29.53000000    12.28000000    17.61000000
   O     27.08000000    15.72000000    15.44000000
   H     26.42000000    16.11000000    16.02000000
   H     26.70000000    15.81000000    14.56000000
   O     28.94000000    16.67000000    19.99000000
   H     29.59000000    17.35000000    19.82000000
   H     28.37000000    17.04000000    20.66000000

Ca 1.00



