%chk=loop3.cluster11.chk
%nprocshared=20
%mem=10GB
%nosave
#b3lyp/svp scf=(tight,noincore,xqc) Test 
#IOP(5/87=12) Density=Current Pop=(MK,readradii) iop(6/33=2) iop(6/42=6)

loop3.cluster11 

   0  1 
   C     75.80000000    47.61000000    27.97000000
   C     75.64000000    46.10000000    27.89000000
   O     76.58000000    45.45000000    27.44000000
   H     76.71000000    47.90700000    27.44800000
   H     74.94100000    48.09200000    27.50400000
   H     75.86500000    47.91400000    29.01500000
   N     74.54000000    45.57000000    28.43000000
   C     74.20000000    44.16000000    28.39000000
   C     73.44000000    43.62000000    27.19000000
   O     72.33000000    44.05000000    26.88000000
   C     73.45000000    43.76000000    29.65000000
   C     72.89000000    42.34000000    29.60000000
   O     71.73000000    42.11000000    30.01000000
   O     73.64000000    41.37000000    29.38000000
   H     73.80000000    46.18000000    28.74000000
   H     75.14000000    43.60000000    28.44000000
   H     72.68000000    44.50000000    29.88000000
   H     74.11000000    43.84000000    30.51000000
   N     74.09000000    42.68000000    26.50000000
   C     73.81000000    42.41000000    25.11000000
   C     72.74000000    41.33000000    24.96000000
   O     71.84000000    41.54000000    24.15000000
   C     75.11000000    41.87000000    24.51000000
   C     75.05000000    41.70000000    23.00000000
   C     76.41000000    41.39000000    22.39000000
   C     76.53000000    42.13000000    21.06000000
   N     77.53000000    41.41000000    20.26000000
   H     74.84000000    42.17000000    26.94000000
   H     73.33000000    43.24000000    24.60000000
   H     75.37000000    40.93000000    24.99000000
   H     75.83000000    42.67000000    24.69000000
   H     74.62000000    42.58000000    22.52000000
   H     74.40000000    40.85000000    22.79000000
   H     76.45000000    40.30000000    22.30000000
   H     77.16000000    41.94000000    22.95000000
   H     76.81000000    43.17000000    21.26000000
   H     75.56000000    42.18000000    20.57000000
   H     77.32000000    40.44000000    20.07000000
   H     77.71000000    41.81000000    19.35000000
   H     78.44000000    41.41000000    20.70000000
   N     72.80000000    40.22000000    25.68000000
   C     71.94000000    39.05000000    25.67000000
   C     70.67000000    39.23000000    26.49000000
   O     69.84000000    38.33000000    26.56000000
   C     72.77000000    37.80000000    25.93000000
   C     73.59000000    37.93000000    27.21000000
   O     74.56000000    37.18000000    27.44000000
   O     73.33000000    38.85000000    28.02000000
   H     73.58000000    40.06000000    26.30000000
   H     71.51000000    39.02000000    24.66000000
   H     73.50000000    37.51000000    25.18000000
   H     72.08000000    36.97000000    26.05000000
   N     70.48000000    40.43000000    27.05000000
   C     69.28000000    40.85000000    27.74000000
   C     69.06000000    40.20000000    29.10000000
   O     67.95000000    40.16000000    29.61000000
   H     71.25000000    41.08000000    26.95000000
   H     68.39000000    40.54000000    27.19000000
   H     69.35000000    41.94000000    27.84000000
   N     70.13000000    39.71000000    29.74000000
   C     69.99000000    38.82000000    30.87000000
   C     70.11000000    39.43000000    32.26000000
   O     69.86000000    38.70000000    33.22000000
   C     70.92000000    37.63000000    30.64000000
   C     72.35000000    37.81000000    31.12000000
   N     72.74000000    36.68000000    31.71000000
   O     73.11000000    38.77000000    30.93000000
   H     71.07000000    39.88000000    29.41000000
   H     68.95000000    38.47000000    30.86000000
   H     70.92000000    37.43000000    29.57000000
   H     70.53000000    36.76000000    31.18000000
   H     72.09000000    35.98000000    32.05000000
   H     73.70000000    36.62000000    32.02000000
   N     70.45000000    40.71000000    32.39000000
   C     70.60000000    41.44000000    33.63000000
   C     71.94000000    41.26000000    34.32000000
   O     72.04000000    41.46000000    35.53000000
   H     70.77000000    41.11000000    31.52000000
   H     69.81000000    41.23000000    34.35000000
   H     70.60000000    42.48000000    33.30000000
   N     72.99000000    40.83000000    33.61000000
   C     74.37000000    40.87000000    34.06000000
   C     75.45000000    41.28000000    33.06000000
   O     75.34000000    40.83000000    31.92000000
   C     74.75000000    39.50000000    34.61000000
   C     73.85000000    38.95000000    35.69000000
   C     73.98000000    39.52000000    36.95000000
   C     73.06000000    37.80000000    35.54000000
   C     73.20000000    39.07000000    38.02000000
   C     72.35000000    37.30000000    36.64000000
   C     72.36000000    37.95000000    37.89000000
   O     71.71000000    37.38000000    38.94000000
   H     72.89000000    40.68000000    32.62000000
   H     74.58000000    41.73000000    34.70000000
   H     75.75000000    39.51000000    35.04000000
   H     74.81000000    38.73000000    33.84000000
   H     74.69000000    40.32000000    37.14000000
   H     72.99000000    37.24000000    34.62000000
   H     73.27000000    39.56000000    38.98000000
   H     71.91000000    36.31000000    36.58000000
   H     71.26000000    36.63000000    38.56000000
   N     76.44000000    42.12000000    33.34000000
   C     77.42000000    42.61000000    32.38000000
   C     78.80000000    41.97000000    32.47000000
   O     79.52000000    42.19000000    33.44000000
   C     77.53000000    44.13000000    32.45000000
   C     76.23000000    44.87000000    32.76000000
   C     78.29000000    44.65000000    31.23000000
   C     76.40000000    46.39000000    32.86000000
   H     76.47000000    42.63000000    34.21000000
   H     77.14000000    42.32000000    31.37000000
   H     78.20000000    44.24000000    33.30000000
   H     75.88000000    44.63000000    33.76000000
   H     75.44000000    44.85000000    32.01000000
   H     78.71000000    45.63000000    31.46000000
   H     79.15000000    44.02000000    30.99000000
   H     77.58000000    44.69000000    30.41000000
   H     77.27000000    46.64000000    33.47000000
   H     76.68000000    46.82000000    31.90000000
   H     75.43000000    46.81000000    33.12000000
   N     79.24000000    41.31000000    31.40000000
   C     80.58000000    40.81000000    31.18000000
   C     81.52000000    41.72000000    30.41000000
   O     81.05000000    42.69000000    29.83000000
   C     80.48000000    39.44000000    30.50000000
   O     80.18000000    39.57000000    29.13000000
   H     78.54000000    41.02000000    30.74000000
   H     81.01000000    40.79000000    32.18000000
   H     79.75000000    38.79000000    30.97000000
   H     81.41000000    38.89000000    30.63000000
   H     79.24000000    39.72000000    29.06000000
   N     82.80000000    41.35000000    30.36000000
   C     83.76000000    42.30000000    29.83000000
   C     83.72000000    42.38000000    28.31000000
   O     83.83000000    43.53000000    27.89000000
   C     85.18000000    41.86000000    30.21000000
   H     83.10000000    40.56000000    30.91000000
   H     83.63000000    43.32000000    30.20000000
   H     85.27000000    40.84000000    29.84000000
   H     85.95000000    42.56000000    29.90000000
   H     85.24000000    41.75000000    31.29000000
   N     83.38000000    41.30000000    27.61000000
   C     83.26000000    41.30000000    26.16000000
   C     82.09000000    42.19000000    25.75000000
   O     82.16000000    42.83000000    24.70000000
   C     83.02000000    39.84000000    25.79000000
   H     83.16000000    40.46000000    28.12000000
   H     84.14000000    41.74000000    25.68000000
   H     82.09000000    39.48000000    26.23000000
   H     83.06000000    39.67000000    24.72000000
   H     83.76000000    39.19000000    26.26000000
   N     81.01000000    42.29000000    26.53000000
   C     79.94000000    43.23000000    26.27000000
   C     80.31000000    44.66000000    26.62000000
   O     80.08000000    45.48000000    25.74000000
   C     78.68000000    42.74000000    26.98000000
   C     78.30000000    41.28000000    26.74000000
   C     77.30000000    40.89000000    27.82000000
   O     77.62000000    40.38000000    28.92000000
   O     76.08000000    40.90000000    27.57000000
   H     81.17000000    41.83000000    27.41000000
   H     79.83000000    43.21000000    25.18000000
   H     77.89000000    43.42000000    26.67000000
   H     78.85000000    42.76000000    28.06000000
   H     79.13000000    40.59000000    26.88000000
   H     77.94000000    41.06000000    25.73000000
   N     81.01000000    44.97000000    27.72000000
   C     81.55000000    46.30000000    27.89000000
   H     82.50200000    46.37500000    27.36500000
   H     80.85200000    47.03100000    27.48200000
   H     81.70400000    46.49700000    28.95100000
   H     81.06000000    44.23000000    28.40000000
  Ca     75.26000000    39.52000000    29.64000000
   O     75.03000000    36.40000000    29.96000000
   H     75.18000000    35.47000000    30.10000000
   H     74.52000000    36.45000000    29.16000000
   O     76.99000000    37.53000000    28.00000000
   H     77.06000000    36.86000000    28.68000000
   H     76.09000000    37.44000000    27.67000000
   O     76.96000000    38.29000000    31.26000000
   H     76.99000000    38.27000000    32.22000000
   H     77.22000000    37.40000000    31.00000000

Ca 1.00



