%chk=loop2.cluster73.chk
%nprocshared=20
%mem=10GB
%nosave
#b3lyp/svp scf=(tight,noincore,xqc) Test 
#IOP(5/87=12) Density=Current Pop=(MK,readradii) iop(6/33=2) iop(6/42=6)

loop2.cluster73 

   -2  1 
   C     93.82000000    84.55000000    32.13000000
   C     95.16000000    84.61000000    32.84000000
   O     95.80000000    85.66000000    32.80000000
   H     93.11300000    85.21000000    32.63300000
   H     93.94200000    84.87000000    31.09500000
   H     93.44200000    83.52800000    32.15300000
   N     95.54000000    83.53000000    33.53000000
   C     96.69000000    83.47000000    34.41000000
   C     96.45000000    84.00000000    35.81000000
   O     96.83000000    83.43000000    36.83000000
   C     97.17000000    82.02000000    34.43000000
   C     98.59000000    81.79000000    34.94000000
   O     99.43000000    82.72000000    34.92000000
   O     98.99000000    80.64000000    35.22000000
   H     94.87000000    82.78000000    33.62000000
   H     97.41000000    84.13000000    33.93000000
   H     97.08000000    81.70000000    33.40000000
   H     96.48000000    81.51000000    35.10000000
   N     95.80000000    85.16000000    36.00000000
   C     95.58000000    85.82000000    37.27000000
   C     94.19000000    86.44000000    37.27000000
   O     93.65000000    86.53000000    36.17000000
   C     96.70000000    86.84000000    37.47000000
   H     95.27000000    85.58000000    35.26000000
   H     95.76000000    85.24000000    38.17000000
   H     96.85000000    87.35000000    36.52000000
   H     96.50000000    87.48000000    38.32000000
   H     97.65000000    86.35000000    37.65000000
   N     93.57000000    86.93000000    38.34000000
   C     94.06000000    86.87000000    39.71000000
   C     93.64000000    85.65000000    40.51000000
   O     92.75000000    84.90000000    40.11000000
   C     93.64000000    88.12000000    40.46000000
   C     93.92000000    89.34000000    39.59000000
   O     95.01000000    89.93000000    39.56000000
   O     92.94000000    89.73000000    38.90000000
   H     92.69000000    87.40000000    38.19000000
   H     95.14000000    86.72000000    39.75000000
   H     94.16000000    88.12000000    41.42000000
   H     92.59000000    88.19000000    40.74000000
   N     94.28000000    85.34000000    41.64000000
   C     94.08000000    84.09000000    42.35000000
   C     94.66000000    82.98000000    41.49000000
   O     95.63000000    83.20000000    40.77000000
   H     95.05000000    85.93000000    41.92000000
   H     93.02000000    83.92000000    42.57000000
   H     94.58000000    84.15000000    43.32000000
   N     94.06000000    81.78000000    41.46000000
   C     93.11000000    81.20000000    42.38000000
   C     91.66000000    81.61000000    42.13000000
   O     90.77000000    81.26000000    42.90000000
   C     93.34000000    79.69000000    42.43000000
   C     94.73000000    79.29000000    42.93000000
   N     94.84000000    78.78000000    44.15000000
   O     95.79000000    79.45000000    42.32000000
   H     94.29000000    81.25000000    40.63000000
   H     93.34000000    81.64000000    43.35000000
   H     93.17000000    79.29000000    41.44000000
   H     92.64000000    79.29000000    43.16000000
   H     94.00000000    78.67000000    44.70000000
   H     95.75000000    78.52000000    44.52000000
   N     91.40000000    82.40000000    41.09000000
   C     90.13000000    82.94000000    40.66000000
   C     89.54000000    84.12000000    41.42000000
   O     88.47000000    83.89000000    41.96000000
   H     92.17000000    82.55000000    40.44000000
   H     89.43000000    82.10000000    40.60000000
   H     90.24000000    83.27000000    39.63000000
   N     90.27000000    85.24000000    41.49000000
   C     89.95000000    86.40000000    42.29000000
   C     89.51000000    87.48000000    41.32000000
   O     90.02000000    88.60000000    41.30000000
   C     91.08000000    86.83000000    43.22000000
   C     90.53000000    87.85000000    44.23000000
   O     91.80000000    85.84000000    43.92000000
   H     91.03000000    85.31000000    40.83000000
   H     89.08000000    86.15000000    42.89000000
   H     91.80000000    87.39000000    42.63000000
   H     92.63000000    86.24000000    44.17000000
   H     91.40000000    88.27000000    44.73000000
   H     89.89000000    88.61000000    43.80000000
   H     89.92000000    87.31000000    44.95000000
   N     88.69000000    87.18000000    40.31000000
   C     88.31000000    87.93000000    39.13000000
   C     87.16000000    88.89000000    39.38000000
   O     86.27000000    88.69000000    40.21000000
   C     87.84000000    86.99000000    38.03000000
   C     89.07000000    86.66000000    37.18000000
   C     87.05000000    85.77000000    38.50000000
   C     90.29000000    86.03000000    37.83000000
   H     88.31000000    86.24000000    40.33000000
   H     89.18000000    88.53000000    38.84000000
   H     87.17000000    87.51000000    37.35000000
   H     89.40000000    87.48000000    36.53000000
   H     88.65000000    85.98000000    36.44000000
   H     87.56000000    84.97000000    39.05000000
   H     86.28000000    86.15000000    39.16000000
   H     86.58000000    85.34000000    37.61000000
   H     90.71000000    86.73000000    38.54000000
   H     90.03000000    85.27000000    38.56000000
   H     91.08000000    85.57000000    37.23000000
   N     87.26000000    89.99000000    38.63000000
   C     86.33000000    91.10000000    38.70000000
   C     85.31000000    90.95000000    37.58000000
   O     85.49000000    90.10000000    36.72000000
   C     87.03000000    92.45000000    38.58000000
   C     87.92000000    92.56000000    37.36000000
   O     89.02000000    91.96000000    37.26000000
   O     87.49000000    93.25000000    36.41000000
   H     87.98000000    89.97000000    37.92000000
   H     85.82000000    91.14000000    39.65000000
   H     87.64000000    92.66000000    39.45000000
   H     86.27000000    93.24000000    38.55000000
   N     84.19000000    91.67000000    37.61000000
   C     82.98000000    91.52000000    36.82000000
   C     83.13000000    91.15000000    35.35000000
   O     82.91000000    89.99000000    35.02000000
   C     81.99000000    90.65000000    37.60000000
   C     80.57000000    91.13000000    37.48000000
   C     79.81000000    90.54000000    36.46000000
   C     80.02000000    92.16000000    38.26000000
   C     78.48000000    90.93000000    36.23000000
   C     78.67000000    92.47000000    38.08000000
   C     77.89000000    91.85000000    37.10000000
   H     84.15000000    92.48000000    38.22000000
   H     82.65000000    92.55000000    36.78000000
   H     82.22000000    90.67000000    38.67000000
   H     82.12000000    89.62000000    37.28000000
   H     80.29000000    89.81000000    35.83000000
   H     80.57000000    92.66000000    39.05000000
   H     77.81000000    90.43000000    35.55000000
   H     78.14000000    93.18000000    38.69000000
   H     76.85000000    92.12000000    37.00000000
   N     83.68000000    91.99000000    34.48000000
   C     83.77000000    91.73000000    33.05000000
   C     84.77000000    90.60000000    32.81000000
   O     84.82000000    89.99000000    31.75000000
   C     84.26000000    93.01000000    32.38000000
   C     85.02000000    93.75000000    33.47000000
   C     84.25000000    93.30000000    34.71000000
   H     82.86000000    91.36000000    32.59000000
   H     84.92000000    92.91000000    31.51000000
   H     83.41000000    93.67000000    32.18000000
   H     86.05000000    93.39000000    33.54000000
   H     85.00000000    94.82000000    33.30000000
   H     84.88000000    93.20000000    35.60000000
   H     83.42000000    93.99000000    34.88000000
   N     85.75000000    90.40000000    33.69000000
   C     86.92000000    89.56000000    33.50000000
   C     86.73000000    88.11000000    33.91000000
   O     87.22000000    87.21000000    33.24000000
   C     88.11000000    90.17000000    34.24000000
   C     89.48000000    89.65000000    33.82000000
   C     90.55000000    90.50000000    34.48000000
   O     91.02000000    90.14000000    35.58000000
   O     90.86000000    91.58000000    33.93000000
   H     85.77000000    90.90000000    34.57000000
   H     87.23000000    89.58000000    32.45000000
   H     87.90000000    90.09000000    35.31000000
   H     88.12000000    91.24000000    34.03000000
   H     89.56000000    89.87000000    32.76000000
   H     89.60000000    88.62000000    34.15000000
   N     85.89000000    87.90000000    34.93000000
   C     85.31000000    86.60000000    35.19000000
   H     84.33700000    86.53300000    34.70300000
   H     85.96600000    85.82300000    34.79700000
   H     85.18800000    86.46400000    36.26500000
   H     85.57000000    88.66000000    35.52000000
  Ca     91.48000000    91.57000000    37.69000000
   O     89.92000000    91.01000000    39.98000000
   H     89.99000000    91.73000000    40.61000000
   H     89.76000000    90.23000000    40.51000000
   O     93.58000000    92.41000000    39.72000000
   H     94.29000000    91.83000000    39.98000000
   H     93.50000000    93.03000000    40.45000000
   O     93.69000000    92.36000000    36.23000000
   H     93.95000000    93.23000000    35.94000000
   H     94.38000000    92.08000000    36.82000000
   O     91.29000000    94.19000000    36.33000000
   H     90.48000000    94.11000000    35.82000000
   H     91.67000000    95.02000000    36.05000000

Ca 1.00



