%chk=loop1.cluster130.chk
%nprocshared=20
%mem=10GB
%nosave
#b3lyp/svp scf=(tight,noincore,xqc) Test 
#IOP(5/87=12) Density=Current Pop=(MK,readradii) iop(6/33=2) iop(6/42=6)

loop1.cluster130 

   0  1 
   C     46.33000000    38.84000000     6.73000000
   C     46.55000000    38.55000000     5.26000000
   O     47.30000000    39.15000000     4.49000000
   H     45.27900000    38.69000000     6.97600000
   H     46.94300000    38.16700000     7.32900000
   H     46.60800000    39.87200000     6.94300000
   N     45.64000000    37.73000000     4.72000000
   C     45.64000000    37.42000000     3.30000000
   C     44.99000000    38.45000000     2.39000000
   O     44.09000000    38.18000000     1.60000000
   C     45.19000000    35.98000000     3.05000000
   C     43.74000000    35.78000000     3.50000000
   O     43.02000000    35.00000000     2.84000000
   O     43.28000000    36.30000000     4.54000000
   H     44.93000000    37.28000000     5.28000000
   H     46.67000000    37.43000000     2.96000000
   H     45.80000000    35.32000000     3.66000000
   H     45.33000000    35.53000000     2.07000000
   N     45.39000000    39.71000000     2.54000000
   C     44.81000000    40.75000000     1.71000000
   C     46.01000000    41.52000000     1.18000000
   O     46.55000000    42.37000000     1.88000000
   C     43.81000000    41.60000000     2.50000000
   C     42.72000000    40.86000000     3.27000000
   C     41.61000000    40.44000000     2.31000000
   C     40.69000000    39.38000000     2.91000000
   N     41.37000000    38.14000000     3.34000000
   H     46.19000000    39.88000000     3.12000000
   H     44.22000000    40.41000000     0.87000000
   H     43.35000000    42.30000000     1.80000000
   H     44.33000000    42.34000000     3.11000000
   H     42.25000000    41.46000000     4.05000000
   H     43.01000000    39.92000000     3.73000000
   H     42.05000000    40.09000000     1.38000000
   H     41.06000000    41.32000000     1.97000000
   H     39.92000000    39.16000000     2.17000000
   H     40.23000000    39.88000000     3.76000000
   H     42.29000000    38.03000000     2.95000000
   H     41.44000000    38.07000000     4.35000000
   H     40.80000000    37.36000000     3.05000000
   N     46.56000000    41.41000000    -0.03000000
   C     46.28000000    40.42000000    -1.04000000
   C     44.91000000    40.46000000    -1.71000000
   O     43.89000000    40.99000000    -1.25000000
   C     46.86000000    39.06000000    -0.69000000
   C     48.31000000    39.19000000    -0.22000000
   O     49.21000000    39.30000000    -1.07000000
   O     48.49000000    39.28000000     1.02000000
   H     47.29000000    42.10000000    -0.19000000
   H     46.96000000    40.71000000    -1.84000000
   H     46.88000000    38.40000000    -1.56000000
   H     46.32000000    38.54000000     0.10000000
   N     44.79000000    40.08000000    -2.98000000
   C     45.75000000    39.59000000    -3.95000000
   C     45.29000000    39.57000000    -5.40000000
   O     44.48000000    40.43000000    -5.73000000
   H     43.89000000    40.40000000    -3.30000000
   H     46.07000000    38.60000000    -3.65000000
   H     46.65000000    40.20000000    -3.97000000
   N     45.96000000    38.74000000    -6.20000000
   C     46.51000000    37.45000000    -5.84000000
   C     45.48000000    36.58000000    -5.13000000
   O     44.28000000    36.76000000    -5.34000000
   C     47.19000000    36.72000000    -6.99000000
   C     48.34000000    35.82000000    -6.57000000
   O     49.44000000    36.37000000    -6.35000000
   O     48.11000000    34.59000000    -6.55000000
   H     45.96000000    38.98000000    -7.18000000
   H     47.28000000    37.60000000    -5.08000000
   H     47.65000000    37.40000000    -7.72000000
   H     46.40000000    36.17000000    -7.50000000
   N     45.84000000    35.76000000    -4.14000000
   C     44.90000000    35.23000000    -3.16000000
   C     45.49000000    34.89000000    -1.80000000
   O     44.88000000    35.16000000    -0.77000000
   H     46.83000000    35.64000000    -4.02000000
   H     44.43000000    34.30000000    -3.45000000
   H     44.13000000    35.96000000    -2.93000000
   N     46.67000000    34.28000000    -1.69000000
   C     47.31000000    33.93000000    -0.44000000
   C     48.02000000    35.13000000     0.16000000
   O     48.48000000    36.03000000    -0.55000000
   C     48.36000000    32.84000000    -0.64000000
   C     47.99000000    31.55000000    -1.36000000
   O     48.82000000    32.38000000     0.61000000
   H     47.21000000    34.11000000    -2.53000000
   H     46.56000000    33.45000000     0.18000000
   H     49.27000000    33.22000000    -1.09000000
   H     48.03000000    32.26000000     1.14000000
   H     47.76000000    31.67000000    -2.42000000
   H     48.85000000    30.88000000    -1.31000000
   H     47.20000000    31.04000000    -0.80000000
   N     48.39000000    35.10000000     1.44000000
   C     49.15000000    36.06000000     2.23000000
   C     50.49000000    36.48000000     1.63000000
   O     50.99000000    37.56000000     1.90000000
   C     49.23000000    35.73000000     3.71000000
   C     50.02000000    36.74000000     4.54000000
   C     49.80000000    34.34000000     3.99000000
   C     50.02000000    36.52000000     6.05000000
   H     48.26000000    34.23000000     1.93000000
   H     48.66000000    37.02000000     2.05000000
   H     48.19000000    35.64000000     4.05000000
   H     49.67000000    37.73000000     4.28000000
   H     51.08000000    36.82000000     4.27000000
   H     49.41000000    33.95000000     4.92000000
   H     49.35000000    33.71000000     3.22000000
   H     50.89000000    34.33000000     3.92000000
   H     50.43000000    37.38000000     6.59000000
   H     48.96000000    36.42000000     6.29000000
   H     50.59000000    35.63000000     6.32000000
   N     51.13000000    35.61000000     0.85000000
   C     52.41000000    35.63000000     0.17000000
   C     53.59000000    35.72000000     1.12000000
   O     54.36000000    34.77000000     1.24000000
   C     52.39000000    36.73000000    -0.89000000
   C     53.40000000    36.46000000    -2.00000000
   O     52.64000000    38.04000000    -0.43000000
   H     50.79000000    34.66000000     0.91000000
   H     52.63000000    34.66000000    -0.28000000
   H     51.37000000    36.62000000    -1.26000000
   H     53.49000000    38.28000000    -0.80000000
   H     53.00000000    35.73000000    -2.70000000
   H     53.60000000    37.44000000    -2.44000000
   H     54.36000000    36.14000000    -1.58000000
   N     53.75000000    36.80000000     1.90000000
   C     54.62000000    37.01000000     3.04000000
   C     56.10000000    37.03000000     2.68000000
   O     56.60000000    36.55000000     1.67000000
   C     54.26000000    36.08000000     4.19000000
   C     54.16000000    36.78000000     5.55000000
   O     55.09000000    34.96000000     4.34000000
   H     53.03000000    37.49000000     1.72000000
   H     54.44000000    38.02000000     3.42000000
   H     53.25000000    35.72000000     4.02000000
   H     55.00000000    34.38000000     3.58000000
   H     53.32000000    37.47000000     5.48000000
   H     53.90000000    36.15000000     6.40000000
   H     55.12000000    37.27000000     5.71000000
   N     56.90000000    37.68000000     3.54000000
   C     58.34000000    37.75000000     3.42000000
   C     58.92000000    39.04000000     2.86000000
   O     60.06000000    39.09000000     2.40000000
   C     59.05000000    37.36000000     4.71000000
   C     58.65000000    36.02000000     5.33000000
   C     58.60000000    34.81000000     4.40000000
   C     58.08000000    33.56000000     5.10000000
   N     58.25000000    32.33000000     4.31000000
   H     56.45000000    38.14000000     4.32000000
   H     58.68000000    37.07000000     2.64000000
   H     58.93000000    38.16000000     5.44000000
   H     60.13000000    37.29000000     4.53000000
   H     57.78000000    36.18000000     5.97000000
   H     59.38000000    35.80000000     6.11000000
   H     59.61000000    34.64000000     4.04000000
   H     57.87000000    35.08000000     3.63000000
   H     57.01000000    33.73000000     5.18000000
   H     58.41000000    33.47000000     6.13000000
   H     59.18000000    32.00000000     4.11000000
   H     57.85000000    31.67000000     4.96000000
   H     57.74000000    32.40000000     3.44000000
   N     58.37000000    40.26000000     2.86000000
   C     57.16000000    40.81000000     3.45000000
   C     56.86000000    40.42000000     4.89000000
   O     55.89000000    39.70000000     5.12000000
   C     56.04000000    40.65000000     2.43000000
   C     54.82000000    41.50000000     2.76000000
   C     53.50000000    41.01000000     2.17000000
   O     53.18000000    39.81000000     2.09000000
   O     52.64000000    41.82000000     1.76000000
   H     58.82000000    40.92000000     2.26000000
   H     57.46000000    41.85000000     3.50000000
   H     55.71000000    39.62000000     2.39000000
   H     56.36000000    41.02000000     1.45000000
   H     54.90000000    42.55000000     2.47000000
   H     54.66000000    41.36000000     3.83000000
   N     57.72000000    40.76000000     5.86000000
   C     57.57000000    40.61000000     7.29000000
   H     56.51300000    40.50600000     7.53500000
   H     58.10800000    39.72200000     7.62100000
   H     57.97400000    41.48900000     7.79200000
   H     58.47000000    41.41000000     5.65000000
  Ca     50.92000000    39.95000000     0.89000000
   O     52.12000000    41.02000000    -1.32900000
   H     52.47000000    41.91000000    -1.33900000
   H     52.24000000    40.70000000    -2.21900000
   O     49.92000000    40.62000000     3.30000000
   H     50.56000000    40.85000000     3.97000000
   H     49.10000000    41.01000000     3.61000000
   O     49.46000000    42.23000000     0.15000000
   H     49.37000000    42.20000000    -0.80000000
   H     48.99000000    43.01000000     0.42000000

Ca 1.00



