%chk=loop2.cluster223.chk
%nprocshared=20
%mem=10GB
%nosave
#b3lyp/svp scf=(tight,noincore,xqc) Test 
#IOP(5/87=12) Density=Current Pop=(MK,readradii) iop(6/33=2) iop(6/42=6)

loop2.cluster223 

   -2  1 
   C     63.60000000    56.30000000    12.79000000
   C     62.32000000    56.75000000    13.47000000
   O     62.44000000    57.40000000    14.51000000
   H     64.40700000    56.26400000    13.52200000
   H     63.45500000    55.30800000    12.36100000
   H     63.85900000    57.00400000    11.99900000
   N     61.16000000    56.30000000    12.97000000
   C     59.83000000    56.58000000    13.46000000
   C     59.60000000    55.77000000    14.73000000
   O     58.96000000    54.72000000    14.74000000
   C     58.68000000    56.45000000    12.47000000
   C     57.29000000    56.72000000    13.05000000
   O     56.28000000    56.21000000    12.51000000
   O     57.16000000    57.41000000    14.08000000
   H     61.21000000    55.67000000    12.18000000
   H     59.79000000    57.62000000    13.81000000
   H     58.71000000    55.42000000    12.10000000
   H     58.84000000    57.10000000    11.62000000
   N     60.17000000    56.21000000    15.85000000
   C     60.10000000    55.50000000    17.11000000
   C     58.73000000    55.21000000    17.70000000
   O     58.70000000    54.44000000    18.66000000
   C     61.08000000    56.08000000    18.12000000
   H     60.82000000    56.98000000    15.86000000
   H     60.48000000    54.49000000    16.95000000
   H     62.02000000    56.20000000    17.58000000
   H     60.75000000    57.05000000    18.50000000
   H     61.32000000    55.39000000    18.93000000
   N     57.66000000    55.81000000    17.17000000
   C     56.31000000    55.65000000    17.65000000
   C     55.57000000    54.55000000    16.90000000
   O     54.62000000    54.01000000    17.47000000
   C     55.44000000    56.90000000    17.55000000
   C     56.29000000    58.10000000    17.92000000
   O     56.58000000    58.90000000    17.01000000
   O     56.71000000    58.22000000    19.10000000
   H     57.84000000    56.42000000    16.38000000
   H     56.28000000    55.39000000    18.71000000
   H     54.50000000    56.71000000    18.07000000
   H     55.24000000    57.06000000    16.49000000
   N     56.16000000    54.13000000    15.78000000
   C     55.58000000    53.00000000    15.08000000
   C     54.26000000    53.28000000    14.38000000
   O     53.28000000    52.54000000    14.30000000
   H     56.99000000    54.58000000    15.43000000
   H     55.35000000    52.09000000    15.64000000
   H     56.32000000    52.72000000    14.33000000
   N     54.22000000    54.50000000    13.82000000
   C     53.05000000    55.16000000    13.28000000
   C     52.82000000    55.21000000    11.78000000
   O     51.70000000    54.92000000    11.35000000
   C     52.95000000    56.48000000    14.04000000
   C     51.76000000    57.32000000    13.62000000
   N     50.57000000    56.81000000    13.96000000
   O     51.83000000    58.32000000    12.91000000
   H     55.05000000    55.05000000    13.92000000
   H     52.21000000    54.59000000    13.69000000
   H     53.80000000    57.13000000    13.82000000
   H     52.86000000    56.34000000    15.12000000
   H     50.48000000    56.01000000    14.57000000
   H     49.76000000    57.36000000    13.72000000
   N     53.95000000    55.46000000    11.11000000
   C     54.09000000    55.94000000     9.75000000
   C     54.03000000    57.44000000     9.50000000
   O     53.37000000    57.80000000     8.53000000
   H     54.81000000    55.49000000    11.64000000
   H     53.35000000    55.53000000     9.06000000
   H     55.06000000    55.61000000     9.37000000
   N     54.48000000    58.22000000    10.48000000
   C     54.59000000    59.66000000    10.45000000
   C     55.94000000    60.19000000    10.92000000
   O     56.24000000    59.88000000    12.07000000
   C     53.55000000    60.34000000    11.33000000
   C     53.60000000    61.86000000    11.23000000
   O     52.19000000    60.05000000    11.08000000
   H     54.92000000    57.72000000    11.24000000
   H     54.47000000    60.01000000     9.42000000
   H     53.81000000    60.14000000    12.37000000
   H     52.00000000    59.20000000    11.49000000
   H     54.53000000    62.22000000    11.68000000
   H     53.47000000    62.19000000    10.20000000
   H     52.80000000    62.33000000    11.80000000
   N     56.62000000    60.88000000    10.00000000
   C     57.92000000    61.48000000    10.18000000
   C     57.66000000    62.92000000    10.61000000
   O     57.40000000    63.82000000     9.82000000
   C     58.68000000    61.44000000     8.86000000
   C     59.04000000    60.00000000     8.49000000
   C     59.92000000    62.33000000     8.83000000
   C     60.24000000    59.37000000     9.20000000
   H     56.23000000    61.02000000     9.08000000
   H     58.54000000    60.99000000    10.94000000
   H     58.05000000    61.83000000     8.07000000
   H     59.30000000    60.19000000     7.44000000
   H     58.14000000    59.40000000     8.62000000
   H     59.67000000    63.38000000     8.68000000
   H     60.51000000    62.17000000     9.73000000
   H     60.62000000    62.13000000     8.02000000
   H     60.00000000    59.26000000    10.25000000
   H     60.49000000    58.39000000     8.78000000
   H     61.10000000    60.03000000     9.12000000
   N     57.77000000    63.20000000    11.91000000
   C     57.92000000    64.48000000    12.57000000
   C     59.29000000    65.07000000    12.25000000
   O     60.14000000    64.36000000    11.72000000
   C     57.69000000    64.27000000    14.06000000
   C     56.42000000    63.61000000    14.58000000
   O     56.43000000    62.43000000    14.98000000
   O     55.36000000    64.28000000    14.56000000
   H     58.29000000    62.51000000    12.42000000
   H     57.19000000    65.18000000    12.15000000
   H     57.79000000    65.21000000    14.62000000
   H     58.53000000    63.73000000    14.48000000
   N     59.45000000    66.37000000    12.51000000
   C     60.63000000    67.09000000    12.07000000
   C     61.98000000    66.49000000    12.41000000
   O     62.83000000    66.45000000    11.52000000
   C     60.52000000    68.59000000    12.34000000
   C     61.68000000    69.38000000    11.77000000
   C     61.98000000    69.35000000    10.40000000
   C     62.40000000    70.21000000    12.63000000
   C     63.08000000    70.10000000     9.97000000
   C     63.54000000    70.92000000    12.23000000
   C     63.77000000    70.95000000    10.84000000
   H     58.67000000    66.86000000    12.92000000
   H     60.66000000    67.02000000    10.98000000
   H     60.58000000    68.83000000    13.40000000
   H     59.62000000    69.05000000    11.94000000
   H     61.45000000    68.75000000     9.68000000
   H     62.27000000    70.23000000    13.70000000
   H     63.39000000    70.04000000     8.93000000
   H     64.17000000    71.39000000    12.96000000
   H     64.60000000    71.56000000    10.51000000
   N     62.23000000    66.13000000    13.67000000
   C     63.54000000    65.60000000    14.01000000
   C     63.81000000    64.29000000    13.28000000
   O     64.95000000    63.92000000    13.00000000
   C     63.60000000    65.50000000    15.53000000
   C     62.23000000    65.96000000    16.03000000
   C     61.53000000    66.62000000    14.84000000
   H     64.31000000    66.30000000    13.69000000
   H     63.76000000    64.45000000    15.78000000
   H     64.47000000    66.02000000    15.93000000
   H     61.76000000    65.04000000    16.39000000
   H     62.33000000    66.72000000    16.80000000
   H     60.45000000    66.49000000    14.82000000
   H     61.65000000    67.71000000    14.83000000
   N     62.76000000    63.52000000    12.99000000
   C     62.76000000    62.35000000    12.14000000
   C     63.05000000    62.59000000    10.66000000
   O     63.79000000    61.83000000    10.04000000
   C     61.56000000    61.45000000    12.40000000
   C     61.22000000    61.03000000    13.83000000
   C     59.84000000    60.45000000    14.10000000
   O     58.90000000    60.52000000    13.27000000
   O     59.52000000    59.95000000    15.20000000
   H     61.82000000    63.87000000    13.07000000
   H     63.61000000    61.75000000    12.46000000
   H     61.60000000    60.48000000    11.89000000
   H     60.65000000    61.93000000    12.04000000
   H     61.29000000    61.95000000    14.40000000
   H     61.91000000    60.26000000    14.18000000
   N     62.63000000    63.75000000    10.15000000
   C     62.99000000    64.13000000     8.81000000
   H     64.02400000    63.84400000     8.61700000
   H     62.33600000    63.62400000     8.10000000
   H     62.88500000    65.20900000     8.69700000
   H     62.22000000    64.42000000    10.79000000
  Ca     56.88000000    59.90000000    14.69000000
   O     54.34000000    59.78000000    15.05000000
   H     53.57000000    59.36000000    15.43000000
   H     54.09000000    60.70000000    14.95000000

Ca 1.00



