%chk=loop1.cluster8.chk
%nprocshared=20
%mem=10GB
%nosave
#b3lyp/svp scf=(tight,noincore,xqc) Test 
#IOP(5/87=12) Density=Current Pop=(MK,readradii) iop(6/33=2) iop(6/42=6)

loop1.cluster8 

   0  1 
   C     39.67000000    77.74000000    26.33000000
   C     40.18000000    77.36000000    27.71000000
   O     41.37000000    77.12000000    27.87000000
   H     38.79300000    78.38000000    26.43100000
   H     40.45000000    78.27600000    25.78900000
   H     39.40000000    76.83800000    25.78100000
   N     39.31000000    77.25000000    28.72000000
   C     39.55000000    77.11000000    30.14000000
   C     39.35000000    75.70000000    30.68000000
   O     39.42000000    75.44000000    31.88000000
   C     38.78000000    78.18000000    30.90000000
   C     37.27000000    78.06000000    30.72000000
   O     36.64000000    78.64000000    29.82000000
   O     36.69000000    77.25000000    31.47000000
   H     38.36000000    77.53000000    28.52000000
   H     40.61000000    77.32000000    30.31000000
   H     39.11000000    79.15000000    30.52000000
   H     39.19000000    78.18000000    31.91000000
   N     38.97000000    74.75000000    29.82000000
   C     38.80000000    73.38000000    30.27000000
   C     39.98000000    72.48000000    29.94000000
   O     40.71000000    72.80000000    29.01000000
   C     37.50000000    72.73000000    29.81000000
   C     36.34000000    73.12000000    30.72000000
   C     34.90000000    72.77000000    30.34000000
   C     33.87000000    72.90000000    31.46000000
   N     33.46000000    74.30000000    31.66000000
   H     39.04000000    75.05000000    28.86000000
   H     38.77000000    73.36000000    31.36000000
   H     37.64000000    71.65000000    29.79000000
   H     37.20000000    72.97000000    28.79000000
   H     36.46000000    74.20000000    30.79000000
   H     36.57000000    72.72000000    31.71000000
   H     34.80000000    71.75000000    29.96000000
   H     34.57000000    73.42000000    29.52000000
   H     34.08000000    72.38000000    32.39000000
   H     32.99000000    72.39000000    31.08000000
   H     34.20000000    74.78000000    32.16000000
   H     33.27000000    74.82000000    30.82000000
   H     32.62000000    74.32000000    32.23000000
   N     40.37000000    71.47000000    30.73000000
   C     39.62000000    70.87000000    31.81000000
   C     39.77000000    71.57000000    33.15000000
   O     38.90000000    71.39000000    34.00000000
   C     39.96000000    69.39000000    31.86000000
   C     41.44000000    69.12000000    32.04000000
   O     41.85000000    68.85000000    33.19000000
   O     42.26000000    68.99000000    31.10000000
   H     41.24000000    71.02000000    30.46000000
   H     38.55000000    70.96000000    31.60000000
   H     39.60000000    68.97000000    30.91000000
   H     39.55000000    68.92000000    32.75000000
   N     40.73000000    72.44000000    33.48000000
   C     41.93000000    72.77000000    32.73000000
   C     43.11000000    73.15000000    33.61000000
   O     43.19000000    72.88000000    34.81000000
   H     40.73000000    72.72000000    34.45000000
   H     41.76000000    73.62000000    32.07000000
   H     42.26000000    71.99000000    32.04000000
   N     44.17000000    73.81000000    33.14000000
   C     44.44000000    74.41000000    31.85000000
   C     44.59000000    75.91000000    32.09000000
   O     45.48000000    76.42000000    32.76000000
   C     45.68000000    73.82000000    31.19000000
   C     45.53000000    72.41000000    30.62000000
   O     44.45000000    71.82000000    30.44000000
   O     46.60000000    71.97000000    30.14000000
   H     44.93000000    73.96000000    33.78000000
   H     43.61000000    74.24000000    31.16000000
   H     46.43000000    73.82000000    31.98000000
   H     46.00000000    74.32000000    30.28000000
   N     43.66000000    76.67000000    31.50000000
   C     43.74000000    78.12000000    31.53000000
   C     44.69000000    78.68000000    30.49000000
   O     45.04000000    79.86000000    30.50000000
   H     42.92000000    76.32000000    30.91000000
   H     44.07000000    78.44000000    32.52000000
   H     42.77000000    78.58000000    31.31000000
   N     45.15000000    77.87000000    29.54000000
   C     45.97000000    78.23000000    28.40000000
   C     45.56000000    77.56000000    27.10000000
   O     44.88000000    76.54000000    27.17000000
   C     47.44000000    77.92000000    28.70000000
   C     47.70000000    76.46000000    29.05000000
   O     47.89000000    78.58000000    29.86000000
   H     44.70000000    76.97000000    29.49000000
   H     45.87000000    79.30000000    28.21000000
   H     48.16000000    78.16000000    27.92000000
   H     47.41000000    79.39000000    30.00000000
   H     47.21000000    76.09000000    29.94000000
   H     47.16000000    75.81000000    28.36000000
   H     48.76000000    76.19000000    29.03000000
   N     46.03000000    78.08000000    25.96000000
   C     45.62000000    77.53000000    24.68000000
   C     46.86000000    77.19000000    23.86000000
   O     47.50000000    78.16000000    23.47000000
   C     44.71000000    78.55000000    24.00000000
   C     44.23000000    78.10000000    22.63000000
   C     45.14000000    80.01000000    23.83000000
   C     43.43000000    76.81000000    22.74000000
   H     46.47000000    78.98000000    26.00000000
   H     45.17000000    76.55000000    24.85000000
   H     43.78000000    78.57000000    24.57000000
   H     45.05000000    77.99000000    21.91000000
   H     43.61000000    78.89000000    22.20000000
   H     45.54000000    80.43000000    24.75000000
   H     45.88000000    80.10000000    23.04000000
   H     44.31000000    80.69000000    23.64000000
   H     44.09000000    75.97000000    22.95000000
   H     42.55000000    76.79000000    23.38000000
   H     43.09000000    76.65000000    21.71000000
   N     47.13000000    75.91000000    23.59000000
   C     48.23000000    75.57000000    22.71000000
   C     47.97000000    74.52000000    21.64000000
   O     48.81000000    74.49000000    20.73000000
   C     49.42000000    75.13000000    23.57000000
   C     49.29000000    73.73000000    24.16000000
   O     49.59000000    76.09000000    24.58000000
   H     46.54000000    75.20000000    24.00000000
   H     48.54000000    76.48000000    22.21000000
   H     50.30000000    75.24000000    22.93000000
   H     49.73000000    77.00000000    24.30000000
   H     48.30000000    73.40000000    24.49000000
   H     49.67000000    72.94000000    23.52000000
   H     50.06000000    73.71000000    24.94000000
   N     46.94000000    73.69000000    21.71000000
   C     46.68000000    72.63000000    20.76000000
   C     47.58000000    71.41000000    20.91000000
   O     48.69000000    71.40000000    21.44000000
   C     46.57000000    73.05000000    19.29000000
   C     45.73000000    74.31000000    19.08000000
   O     45.90000000    72.03000000    18.59000000
   H     46.49000000    73.65000000    22.62000000
   H     45.69000000    72.24000000    20.99000000
   H     47.59000000    73.23000000    18.97000000
   H     45.50000000    72.51000000    17.85000000
   H     45.77000000    75.06000000    19.86000000
   H     46.06000000    74.65000000    18.10000000
   H     44.69000000    73.98000000    19.12000000
   N     47.03000000    70.29000000    20.42000000
   C     47.72000000    69.04000000    20.18000000
   C     47.20000000    67.74000000    20.79000000
   O     47.92000000    66.75000000    20.74000000
   C     47.94000000    68.88000000    18.68000000
   C     48.85000000    69.90000000    18.01000000
   C     50.36000000    69.79000000    18.22000000
   C     51.14000000    70.79000000    17.38000000
   N     51.04000000    70.36000000    15.97000000
   H     46.21000000    70.46000000    19.87000000
   H     48.72000000    68.99000000    20.61000000
   H     46.98000000    68.94000000    18.17000000
   H     48.38000000    67.90000000    18.50000000
   H     48.53000000    70.95000000    18.08000000
   H     48.73000000    69.74000000    16.93000000
   H     50.61000000    68.77000000    17.93000000
   H     50.54000000    69.90000000    19.29000000
   H     52.16000000    70.94000000    17.72000000
   H     50.74000000    71.80000000    17.46000000
   H     50.07000000    70.32000000    15.68000000
   H     51.60000000    70.95000000    15.38000000
   H     51.36000000    69.41000000    15.88000000
   N     46.11000000    67.57000000    21.55000000
   C     44.99000000    68.42000000    21.90000000
   C     44.34000000    69.17000000    20.75000000
   O     43.97000000    70.33000000    20.92000000
   C     45.35000000    69.30000000    23.09000000
   C     44.15000000    69.81000000    23.89000000
   C     44.65000000    70.14000000    25.29000000
   O     44.45000000    69.27000000    26.16000000
   O     45.33000000    71.16000000    25.55000000
   H     45.93000000    66.60000000    21.76000000
   H     44.17000000    67.75000000    22.17000000
   H     45.79000000    70.23000000    22.73000000
   H     46.14000000    68.81000000    23.65000000
   H     43.46000000    68.97000000    23.97000000
   H     43.66000000    70.70000000    23.50000000
   N     44.22000000    68.49000000    19.60000000
   C     43.77000000    68.94000000    18.30000000
   H     42.90000000    69.58600000    18.42100000
   H     44.57000000    69.49600000    17.81100000
   H     43.50000000    68.07800000    17.69000000
   H     44.38000000    67.51000000    19.78000000
  Ca     45.43000000    70.78000000    28.07000000
   O     43.17000000    72.17000000    27.14000000
   H     43.29000000    72.92000000    26.56000000
   H     42.27000000    72.26000000    27.46000000
   O     47.99000000    70.99000000    27.53000000
   H     48.48000000    70.50000000    26.87000000
   H     48.53000000    71.75000000    27.73000000
   O     46.25000000    73.29000000    27.70000000
   H     47.18000000    73.22000000    27.53000000
   H     45.93000000    73.93000000    27.06000000
   O     45.42000000    68.52000000    29.72000000
   H     45.04000000    67.64000000    29.70000000
   H     46.01000000    68.51000000    30.48000000
   O     42.89000000    69.74000000    28.63000000
   H     42.79000000    69.47000000    29.55000000
   H     41.99000000    69.78000000    28.30000000

Ca 1.00



