%chk=loop4.cluster49.chk
%nprocshared=20
%mem=10GB
%nosave
#b3lyp/svp scf=(tight,noincore,xqc) Test 
#IOP(5/87=12) Density=Current Pop=(MK,readradii) iop(6/33=2) iop(6/42=6)

loop4.cluster49 

   -3  1 
   C     45.37000000    47.42000000    49.20000000
   C     46.04000000    46.82000000    50.43000000
   O     47.15000000    46.32000000    50.26000000
   H     44.46900000    47.95500000    49.50200000
   H     46.05700000    48.11200000    48.71300000
   H     45.10300000    46.62300000    48.50600000
   N     45.36000000    46.93000000    51.58000000
   C     45.68000000    46.49000000    52.92000000
   C     46.98000000    46.96000000    53.54000000
   O     47.54000000    46.30000000    54.42000000
   C     45.28000000    45.03000000    53.11000000
   C     45.73000000    44.12000000    51.97000000
   O     45.02000000    43.72000000    51.01000000
   O     46.88000000    43.65000000    52.06000000
   H     44.41000000    47.25000000    51.47000000
   H     44.95000000    47.06000000    53.50000000
   H     44.19000000    45.00000000    53.15000000
   H     45.73000000    44.60000000    54.00000000
   N     47.45000000    48.10000000    53.03000000
   C     48.60000000    48.88000000    53.44000000
   C     48.42000000    49.42000000    54.86000000
   O     49.35000000    49.43000000    55.66000000
   C     49.95000000    48.29000000    53.05000000
   C     50.98000000    49.40000000    52.89000000
   C     49.97000000    47.43000000    51.79000000
   C     52.44000000    48.94000000    52.85000000
   H     46.92000000    48.48000000    52.26000000
   H     48.48000000    49.79000000    52.85000000
   H     50.18000000    47.68000000    53.93000000
   H     50.84000000    50.12000000    53.70000000
   H     50.78000000    49.95000000    51.98000000
   H     49.71000000    48.06000000    50.95000000
   H     50.86000000    46.83000000    51.58000000
   H     49.13000000    46.74000000    51.85000000
   H     52.82000000    48.65000000    53.82000000
   H     52.53000000    48.10000000    52.16000000
   H     53.07000000    49.82000000    52.66000000
   N     47.25000000    49.98000000    55.18000000
   C     47.08000000    50.73000000    56.41000000
   C     46.00000000    50.20000000    57.34000000
   O     44.83000000    50.56000000    57.16000000
   C     46.92000000    52.20000000    56.03000000
   C     45.95000000    52.63000000    54.93000000
   O     45.92000000    53.82000000    54.58000000
   O     45.15000000    51.82000000    54.41000000
   H     46.60000000    50.03000000    54.41000000
   H     47.99000000    50.70000000    57.01000000
   H     47.92000000    52.43000000    55.67000000
   H     46.60000000    52.79000000    56.89000000
   N     46.32000000    49.47000000    58.41000000
   C     47.44000000    48.56000000    58.55000000
   C     47.33000000    47.55000000    57.41000000
   O     46.22000000    47.25000000    56.97000000
   H     45.57000000    49.39000000    59.07000000
   H     47.48000000    47.98000000    59.47000000
   H     48.39000000    49.09000000    58.42000000
   N     48.42000000    46.85000000    57.09000000
   C     49.77000000    46.97000000    57.61000000
   C     50.73000000    46.34000000    56.60000000
   O     50.40000000    45.32000000    55.99000000
   C     49.78000000    46.18000000    58.91000000
   C     51.13000000    45.98000000    59.60000000
   O     51.59000000    46.98000000    60.19000000
   O     51.73000000    44.90000000    59.46000000
   H     48.27000000    46.30000000    56.26000000
   H     50.01000000    48.01000000    57.81000000
   H     49.35000000    45.19000000    58.76000000
   H     48.98000000    46.57000000    59.54000000
   N     51.91000000    46.91000000    56.35000000
   C     52.37000000    48.19000000    56.83000000
   C     53.87000000    48.39000000    56.98000000
   O     54.25000000    49.55000000    57.08000000
   H     52.62000000    46.35000000    55.90000000
   H     52.02000000    48.35000000    57.85000000
   H     51.87000000    48.90000000    56.17000000
   N     54.69000000    47.34000000    57.07000000
   C     56.10000000    47.42000000    57.37000000
   C     57.05000000    47.81000000    56.25000000
   O     58.26000000    47.92000000    56.41000000
   C     56.45000000    46.13000000    58.11000000
   C     56.53000000    44.93000000    57.17000000
   C     56.92000000    43.60000000    57.81000000
   N     56.62000000    42.55000000    57.04000000
   O     57.44000000    43.40000000    58.90000000
   H     54.21000000    46.47000000    57.26000000
   H     56.32000000    48.19000000    58.11000000
   H     55.64000000    45.99000000    58.82000000
   H     57.43000000    46.24000000    58.58000000
   H     57.30000000    45.14000000    56.43000000
   H     55.60000000    44.71000000    56.67000000
   H     56.15000000    42.56000000    56.14000000
   H     56.80000000    41.72000000    57.58000000
   N     56.51000000    48.05000000    55.05000000
   C     57.17000000    48.27000000    53.78000000
   C     57.42000000    46.94000000    53.09000000
   O     56.54000000    46.15000000    52.76000000
   C     56.39000000    49.07000000    52.74000000
   C     57.05000000    49.34000000    51.39000000
   C     55.97000000    50.43000000    53.29000000
   H     55.51000000    47.93000000    55.00000000
   H     58.12000000    48.78000000    53.99000000
   H     55.47000000    48.55000000    52.50000000
   H     56.19000000    49.56000000    50.76000000
   H     57.86000000    50.06000000    51.46000000
   H     57.49000000    48.39000000    51.06000000
   H     55.34000000    50.21000000    54.14000000
   H     56.87000000    50.99000000    53.56000000
   H     55.49000000    50.99000000    52.48000000
   N     58.68000000    46.66000000    52.76000000
   C     59.20000000    45.40000000    52.25000000
   C     58.61000000    45.06000000    50.89000000
   O     58.45000000    45.89000000    49.99000000
   C     59.32000000    44.30000000    53.30000000
   C     60.33000000    44.62000000    54.40000000
   N     60.21000000    43.88000000    55.50000000
   O     61.19000000    45.49000000    54.34000000
   H     59.36000000    47.39000000    52.91000000
   H     60.24000000    45.56000000    51.98000000
   H     59.73000000    43.44000000    52.77000000
   H     58.34000000    44.00000000    53.65000000
   H     59.54000000    43.14000000    55.67000000
   H     60.86000000    44.19000000    56.21000000
   N     58.43000000    43.80000000    50.49000000
   C     58.24000000    43.39000000    49.12000000
   C     56.81000000    42.97000000    48.79000000
   O     56.00000000    42.50000000    49.59000000
   C     59.31000000    42.37000000    48.75000000
   C     60.68000000    42.97000000    48.96000000
   C     61.54000000    42.34000000    49.87000000
   C     61.19000000    43.95000000    48.10000000
   C     62.89000000    42.70000000    49.99000000
   C     62.54000000    44.29000000    48.25000000
   C     63.43000000    43.72000000    49.19000000
   O     64.77000000    43.95000000    49.36000000
   H     58.50000000    43.08000000    51.19000000
   H     58.50000000    44.23000000    48.47000000
   H     59.27000000    42.03000000    47.71000000
   H     59.21000000    41.41000000    49.25000000
   H     61.07000000    41.62000000    50.52000000
   H     60.52000000    44.44000000    47.40000000
   H     63.51000000    42.21000000    50.73000000
   H     62.92000000    45.03000000    47.56000000
   H     65.17000000    44.52000000    48.71000000
   N     56.47000000    43.06000000    47.51000000
   C     55.22000000    42.72000000    46.86000000
   C     54.05000000    43.58000000    47.30000000
   O     52.94000000    43.07000000    47.42000000
   C     54.87000000    41.23000000    46.92000000
   C     55.93000000    40.25000000    46.43000000
   C     56.47000000    40.56000000    45.04000000
   O     57.63000000    40.22000000    44.75000000
   O     55.71000000    41.10000000    44.21000000
   H     57.15000000    43.34000000    46.82000000
   H     55.39000000    43.00000000    45.82000000
   H     54.01000000    41.15000000    46.24000000
   H     54.50000000    40.97000000    47.91000000
   H     55.45000000    39.27000000    46.39000000
   H     56.79000000    40.22000000    47.10000000
   N     54.33000000    44.85000000    47.61000000
   C     53.38000000    45.90000000    47.93000000
   C     53.47000000    47.06000000    46.95000000
   O     52.45000000    47.47000000    46.39000000
   C     53.64000000    46.38000000    49.36000000
   C     53.22000000    45.35000000    50.41000000
   C     51.82000000    44.77000000    50.26000000
   O     51.38000000    43.83000000    50.96000000
   O     50.96000000    45.42000000    49.63000000
   H     55.29000000    45.14000000    47.57000000
   H     52.35000000    45.56000000    47.85000000
   H     53.07000000    47.30000000    49.54000000
   H     54.70000000    46.56000000    49.53000000
   H     53.32000000    45.83000000    51.38000000
   H     53.99000000    44.59000000    50.35000000
   N     54.69000000    47.52000000    46.69000000
   C     54.97000000    48.65000000    45.83000000
   H     55.98500000    48.56700000    45.44100000
   H     54.26300000    48.66000000    45.00100000
   H     54.87500000    49.57400000    46.40100000
   H     55.44000000    47.07000000    47.20000000
  Ca     48.85000000    44.18000000    50.66000000
   O     48.83000000    44.16000000    47.86000000
   H     48.95000000    43.75000000    47.00000000
   H     48.79000000    45.10000000    47.68000000
   O     49.42000000    44.65000000    53.22000000
   H     49.11000000    44.08000000    53.92000000
   H     50.11000000    45.17000000    53.62000000
   O     46.85000000    42.66000000    49.38000000
   H     46.59000000    42.00000000    48.73000000
   H     46.04000000    42.84000000    49.86000000
   O     49.12000000    41.70000000    51.51000000
   H     49.55000000    41.37000000    52.30000000
   H     48.38000000    41.11000000    51.38000000

Ca 1.00



