%chk=loop4.cluster116.chk
%nprocshared=20
%mem=10GB
%nosave
#b3lyp/svp scf=(tight,noincore,xqc) Test 
#IOP(5/87=12) Density=Current Pop=(MK,readradii) iop(6/33=2) iop(6/42=6)

loop4.cluster116 

   -3  1 
   C     44.82000000    55.44000000    60.89000000
   C     45.29000000    55.23000000    62.32000000
   O     46.31000000    54.57000000    62.53000000
   H     43.95400000    56.10300000    60.88600000
   H     45.62300000    55.88900000    60.30500000
   H     44.54400000    54.48000000    60.45300000
   N     44.64000000    55.81000000    63.33000000
   C     45.04000000    55.98000000    64.71000000
   C     46.51000000    56.34000000    64.88000000
   O     47.38000000    55.63000000    65.37000000
   C     44.55000000    54.85000000    65.62000000
   C     44.95000000    53.46000000    65.13000000
   O     44.04000000    52.70000000    64.73000000
   O     46.04000000    52.98000000    65.50000000
   H     43.88000000    56.40000000    63.02000000
   H     44.49000000    56.84000000    65.09000000
   H     43.46000000    54.96000000    65.67000000
   H     45.08000000    55.07000000    66.54000000
   N     46.85000000    57.46000000    64.23000000
   C     48.11000000    58.16000000    64.15000000
   C     48.74000000    58.28000000    65.53000000
   O     49.83000000    57.78000000    65.84000000
   C     49.12000000    57.72000000    63.09000000
   C     50.06000000    58.84000000    62.68000000
   C     48.36000000    57.43000000    61.80000000
   C     51.18000000    58.56000000    61.68000000
   H     46.03000000    57.92000000    63.86000000
   H     47.98000000    59.19000000    63.85000000
   H     49.74000000    56.89000000    63.43000000
   H     50.47000000    59.35000000    63.55000000
   H     49.53000000    59.70000000    62.26000000
   H     49.02000000    57.21000000    60.96000000
   H     47.76000000    56.51000000    61.83000000
   H     47.54000000    58.13000000    61.65000000
   H     51.77000000    59.47000000    61.53000000
   H     51.74000000    57.68000000    62.00000000
   H     50.75000000    58.31000000    60.71000000
   N     48.01000000    58.83000000    66.50000000
   C     48.17000000    58.64000000    67.93000000
   C     47.55000000    57.34000000    68.44000000
   O     46.33000000    57.23000000    68.49000000
   C     47.60000000    59.82000000    68.71000000
   C     46.14000000    60.12000000    68.43000000
   O     45.44000000    60.51000000    69.39000000
   O     45.68000000    60.15000000    67.26000000
   H     47.07000000    59.14000000    66.30000000
   H     49.21000000    58.59000000    68.25000000
   H     48.18000000    60.72000000    68.49000000
   H     47.71000000    59.52000000    69.75000000
   N     48.33000000    56.40000000    68.97000000
   C     49.78000000    56.46000000    69.04000000
   C     50.32000000    57.19000000    70.25000000
   O     49.76000000    57.30000000    71.34000000
   H     47.97000000    55.47000000    69.15000000
   H     50.13000000    56.86000000    68.08000000
   H     50.17000000    55.44000000    69.06000000
   N     51.48000000    57.82000000    70.07000000
   C     52.20000000    58.09000000    68.84000000
   C     53.00000000    56.94000000    68.25000000
   O     53.36000000    56.02000000    68.98000000
   C     52.93000000    59.43000000    68.87000000
   C     53.94000000    59.54000000    70.00000000
   O     53.53000000    59.95000000    71.11000000
   O     55.11000000    59.17000000    69.78000000
   H     51.88000000    58.34000000    70.84000000
   H     51.47000000    58.32000000    68.05000000
   H     52.20000000    60.22000000    69.00000000
   H     53.45000000    59.58000000    67.92000000
   N     53.16000000    56.88000000    66.93000000
   C     53.04000000    57.87000000    65.88000000
   C     54.32000000    58.49000000    65.35000000
   O     54.24000000    59.39000000    64.51000000
   H     53.64000000    56.04000000    66.64000000
   H     52.33000000    58.63000000    66.21000000
   H     52.46000000    57.51000000    65.03000000
   N     55.51000000    58.07000000    65.79000000
   C     56.77000000    58.60000000    65.33000000
   C     57.25000000    58.01000000    64.01000000
   O     58.26000000    58.37000000    63.42000000
   C     57.78000000    58.31000000    66.44000000
   C     58.24000000    56.90000000    66.77000000
   C     58.85000000    56.77000000    68.16000000
   N     59.45000000    55.59000000    68.36000000
   O     58.83000000    57.67000000    69.00000000
   H     55.56000000    57.43000000    66.57000000
   H     56.59000000    59.67000000    65.23000000
   H     57.40000000    58.82000000    67.33000000
   H     58.65000000    58.88000000    66.11000000
   H     58.96000000    56.60000000    66.02000000
   H     57.47000000    56.12000000    66.70000000
   H     59.32000000    54.78000000    67.76000000
   H     60.19000000    55.55000000    69.05000000
   N     56.54000000    57.01000000    63.47000000
   C     56.82000000    56.56000000    62.12000000
   C     57.50000000    55.20000000    62.21000000
   O     56.96000000    54.24000000    62.77000000
   C     55.52000000    56.55000000    61.32000000
   C     55.92000000    56.40000000    59.86000000
   C     54.67000000    57.81000000    61.43000000
   H     55.80000000    56.54000000    63.97000000
   H     57.51000000    57.27000000    61.67000000
   H     54.95000000    55.70000000    61.71000000
   H     56.57000000    55.57000000    59.59000000
   H     55.00000000    56.39000000    59.27000000
   H     56.33000000    57.36000000    59.56000000
   H     53.86000000    57.94000000    60.71000000
   H     54.33000000    57.85000000    62.46000000
   H     55.28000000    58.71000000    61.44000000
   N     58.63000000    55.06000000    61.51000000
   C     59.44000000    53.90000000    61.18000000
   C     58.80000000    52.80000000    60.34000000
   O     59.56000000    52.11000000    59.66000000
   C     60.03000000    53.36000000    62.48000000
   C     60.87000000    54.42000000    63.17000000
   N     60.52000000    54.89000000    64.37000000
   O     61.73000000    54.99000000    62.50000000
   H     59.00000000    55.89000000    61.08000000
   H     60.23000000    54.31000000    60.56000000
   H     60.66000000    52.50000000    62.24000000
   H     59.20000000    53.11000000    63.14000000
   H     59.73000000    54.47000000    64.84000000
   H     60.89000000    55.70000000    64.86000000
   N     57.49000000    52.56000000    60.38000000
   C     56.81000000    51.52000000    59.64000000
   C     55.32000000    51.84000000    59.53000000
   O     54.78000000    52.73000000    60.17000000
   C     57.11000000    50.15000000    60.25000000
   C     57.26000000    50.11000000    61.75000000
   C     56.17000000    50.09000000    62.63000000
   C     58.53000000    50.20000000    62.33000000
   C     56.29000000    50.28000000    64.01000000
   C     58.73000000    50.32000000    63.71000000
   C     57.60000000    50.35000000    64.55000000
   O     57.86000000    50.41000000    65.88000000
   H     57.01000000    53.19000000    61.01000000
   H     57.26000000    51.47000000    58.65000000
   H     58.02000000    49.71000000    59.83000000
   H     56.26000000    49.55000000    59.91000000
   H     55.21000000    49.99000000    62.15000000
   H     59.44000000    50.24000000    61.74000000
   H     55.50000000    50.35000000    64.74000000
   H     59.73000000    50.43000000    64.09000000
   H     58.81000000    50.38000000    66.03000000
   N     54.71000000    51.11000000    58.59000000
   C     53.30000000    50.86000000    58.38000000
   C     52.40000000    52.01000000    57.96000000
   O     51.48000000    51.88000000    57.15000000
   C     52.69000000    50.22000000    59.62000000
   C     53.06000000    48.74000000    59.74000000
   C     52.51000000    48.15000000    61.03000000
   O     51.54000000    47.36000000    61.02000000
   O     53.18000000    48.38000000    62.06000000
   H     55.28000000    50.50000000    58.02000000
   H     53.18000000    50.06000000    57.65000000
   H     51.62000000    50.33000000    59.50000000
   H     53.00000000    50.75000000    60.53000000
   H     54.15000000    48.72000000    59.78000000
   H     52.86000000    48.17000000    58.84000000
   N     52.67000000    53.20000000    58.50000000
   C     51.77000000    54.31000000    58.25000000
   C     52.23000000    55.03000000    56.99000000
   O     51.49000000    55.36000000    56.07000000
   C     51.76000000    55.29000000    59.41000000
   C     51.53000000    54.71000000    60.81000000
   C     50.11000000    54.29000000    61.13000000
   O     49.71000000    54.45000000    62.30000000
   O     49.36000000    53.70000000    60.31000000
   H     53.44000000    53.32000000    59.14000000
   H     50.73000000    54.05000000    58.06000000
   H     51.06000000    56.11000000    59.21000000
   H     52.75000000    55.73000000    59.47000000
   H     51.71000000    55.53000000    61.51000000
   H     52.19000000    53.88000000    61.06000000
   N     53.54000000    55.19000000    56.81000000
   C     54.08000000    55.96000000    55.70000000
   H     55.09400000    55.62200000    55.48300000
   H     53.45400000    55.81700000    54.81900000
   H     54.09900000    57.01700000    55.96500000
   H     54.10000000    54.93000000    57.61000000
  Ca     48.31000000    53.37000000    64.17000000
   O     50.70000000    52.27000000    64.15000000
   H     50.98000000    51.37000000    63.99000000
   H     51.47000000    52.67000000    64.57000000
   O     50.51000000    55.05000000    64.89000000
   H     50.38000000    55.16000000    63.95000000
   H     50.27000000    55.90000000    65.27000000
   O     47.84000000    51.91000000    61.97000000
   H     47.59000000    51.19000000    61.39000000
   H     48.32000000    52.51000000    61.40000000
   O     48.98000000    53.27000000    66.69000000
   H     48.22000000    53.40000000    67.25000000
   H     49.68000000    53.02000000    67.29000000
   O     48.15000000    50.89000000    65.22000000
   H     47.55000000    50.16000000    65.35000000
   H     48.87000000    50.72000000    65.83000000

Ca 1.00



