%chk=loop2.cluster46.chk
%nprocshared=20
%mem=10GB
%nosave
#b3lyp/svp scf=(tight,noincore,xqc) Test 
#IOP(5/87=12) Density=Current Pop=(MK,readradii) iop(6/33=2) iop(6/42=6)

loop2.cluster46 

   -2  1 
   C     39.72000000    44.67000000     2.31000000
   C     38.37000000    45.20000000     2.77000000
   O     38.34000000    46.30000000     3.32000000
   H     40.46900000    44.87200000     3.07600000
   H     39.65100000    43.59500000     2.14400000
   H     40.00800000    45.16400000     1.38200000
   N     37.16000000    44.65000000     2.59000000
   C     36.74000000    43.40000000     1.99000000
   C     35.58000000    42.84000000     2.81000000
   O     34.64000000    43.47000000     3.29000000
   C     36.19000000    43.52000000     0.57000000
   C     35.30000000    44.69000000     0.17000000
   O     35.14000000    44.94000000    -1.05000000
   O     34.78000000    45.40000000     1.06000000
   H     36.35000000    45.08000000     3.00000000
   H     37.52000000    42.64000000     1.96000000
   H     35.56000000    42.65000000     0.36000000
   H     37.10000000    43.44000000    -0.03000000
   N     35.74000000    41.53000000     2.99000000
   C     34.74000000    40.64000000     3.56000000
   C     33.39000000    40.56000000     2.86000000
   O     33.00000000    39.50000000     2.37000000
   C     34.53000000    40.89000000     5.05000000
   H     36.51000000    41.08000000     2.53000000
   H     35.19000000    39.65000000     3.51000000
   H     35.47000000    40.93000000     5.61000000
   H     34.00000000    41.82000000     5.27000000
   H     33.96000000    40.06000000     5.46000000
   N     32.58000000    41.62000000     2.83000000
   C     31.36000000    41.73000000     2.06000000
   C     31.43000000    42.65000000     0.85000000
   O     31.98000000    43.75000000     0.86000000
   C     30.14000000    41.96000000     2.94000000
   C     30.31000000    43.12000000     3.91000000
   O     31.10000000    44.03000000     3.57000000
   O     29.69000000    43.13000000     5.00000000
   H     32.90000000    42.52000000     3.15000000
   H     31.17000000    40.72000000     1.67000000
   H     30.01000000    41.08000000     3.57000000
   H     29.31000000    42.18000000     2.27000000
   N     30.83000000    42.24000000    -0.27000000
   C     30.78000000    42.84000000    -1.58000000
   C     29.95000000    44.12000000    -1.61000000
   O     29.14000000    44.29000000    -2.52000000
   H     30.17000000    41.48000000    -0.17000000
   H     30.46000000    42.14000000    -2.35000000
   H     31.80000000    43.19000000    -1.74000000
   N     30.03000000    45.03000000    -0.64000000
   C     29.32000000    46.29000000    -0.58000000
   C     30.35000000    47.41000000    -0.57000000
   O     30.06000000    48.51000000    -0.12000000
   C     28.46000000    46.29000000     0.68000000
   C     29.21000000    46.18000000     2.00000000
   N     28.56000000    45.83000000     3.10000000
   O     30.44000000    46.18000000     2.08000000
   H     30.50000000    44.73000000     0.20000000
   H     28.68000000    46.33000000    -1.47000000
   H     27.72000000    45.50000000     0.56000000
   H     27.99000000    47.27000000     0.63000000
   H     27.55000000    45.75000000     3.06000000
   H     29.07000000    45.92000000     3.97000000
   N     31.55000000    47.21000000    -1.11000000
   C     32.72000000    48.07000000    -1.11000000
   C     33.22000000    48.47000000     0.27000000
   O     32.95000000    47.77000000     1.24000000
   H     31.69000000    46.34000000    -1.60000000
   H     32.51000000    48.90000000    -1.78000000
   H     33.64000000    47.61000000    -1.49000000
   N     33.91000000    49.58000000     0.53000000
   C     33.96000000    50.75000000    -0.33000000
   C     35.25000000    51.55000000    -0.22000000
   O     35.43000000    52.40000000    -1.08000000
   C     32.72000000    51.62000000    -0.14000000
   C     32.85000000    52.59000000     1.04000000
   O     32.46000000    52.35000000    -1.32000000
   H     34.03000000    49.75000000     1.51000000
   H     33.89000000    50.38000000    -1.35000000
   H     31.86000000    50.99000000     0.06000000
   H     31.53000000    52.55000000    -1.17000000
   H     31.92000000    53.14000000     1.11000000
   H     32.99000000    52.13000000     2.02000000
   H     33.60000000    53.34000000     0.81000000
   N     36.13000000    51.19000000     0.73000000
   C     37.28000000    51.94000000     1.19000000
   C     36.98000000    53.42000000     1.33000000
   O     37.35000000    54.22000000     0.47000000
   C     38.56000000    51.68000000     0.39000000
   C     38.71000000    50.25000000    -0.12000000
   C     39.77000000    52.24000000     1.13000000
   C     40.00000000    50.08000000    -0.92000000
   H     35.88000000    50.29000000     1.11000000
   H     37.50000000    51.52000000     2.17000000
   H     38.38000000    52.22000000    -0.54000000
   H     37.85000000    50.06000000    -0.76000000
   H     38.69000000    49.51000000     0.68000000
   H     40.65000000    52.24000000     0.48000000
   H     39.67000000    53.31000000     1.31000000
   H     39.98000000    51.72000000     2.06000000
   H     40.91000000    49.96000000    -0.34000000
   H     39.95000000    49.15000000    -1.49000000
   H     40.09000000    50.98000000    -1.53000000
   N     36.30000000    53.89000000     2.37000000
   C     35.79000000    53.03000000     3.42000000
   C     36.93000000    52.68000000     4.37000000
   O     37.04000000    51.56000000     4.88000000
   C     34.61000000    53.61000000     4.19000000
   C     34.93000000    54.82000000     5.07000000
   O     34.30000000    54.88000000     6.14000000
   O     35.76000000    55.70000000     4.74000000
   H     36.03000000    54.87000000     2.40000000
   H     35.40000000    52.11000000     2.99000000
   H     34.27000000    52.80000000     4.84000000
   H     33.87000000    53.91000000     3.45000000
   N     37.90000000    53.57000000     4.55000000
   C     38.99000000    53.36000000     5.48000000
   C     38.51000000    53.35000000     6.92000000
   O     37.57000000    54.06000000     7.27000000
   C     40.07000000    54.39000000     5.13000000
   C     39.67000000    55.81000000     5.44000000
   C     39.31000000    56.72000000     4.44000000
   C     39.77000000    56.25000000     6.77000000
   C     38.97000000    58.03000000     4.80000000
   C     39.62000000    57.61000000     7.07000000
   C     39.14000000    58.50000000     6.10000000
   H     37.57000000    54.47000000     4.21000000
   H     39.33000000    52.35000000     5.26000000
   H     40.31000000    54.24000000     4.08000000
   H     41.01000000    54.20000000     5.64000000
   H     39.20000000    56.42000000     3.41000000
   H     40.18000000    55.57000000     7.50000000
   H     38.67000000    58.71000000     4.01000000
   H     39.75000000    57.92000000     8.10000000
   H     38.81000000    59.48000000     6.41000000
   N     39.13000000    52.55000000     7.79000000
   C     40.24000000    51.68000000     7.47000000
   C     39.76000000    50.32000000     6.99000000
   O     38.59000000    50.15000000     6.67000000
   C     40.92000000    51.66000000     8.84000000
   C     39.83000000    51.64000000     9.91000000
   C     38.79000000    52.49000000     9.20000000
   H     40.90000000    52.19000000     6.77000000
   H     41.65000000    50.86000000     8.95000000
   H     41.39000000    52.64000000     8.93000000
   H     39.50000000    50.64000000    10.19000000
   H     40.03000000    52.26000000    10.78000000
   H     37.84000000    51.99000000     9.38000000
   H     38.77000000    53.53000000     9.54000000
   N     40.70000000    49.37000000     6.84000000
   C     40.36000000    48.09000000     6.25000000
   C     41.46000000    47.47000000     5.40000000
   O     41.42000000    46.27000000     5.14000000
   C     39.91000000    47.16000000     7.37000000
   C     41.03000000    46.87000000     8.37000000
   C     40.64000000    45.76000000     9.34000000
   O     40.02000000    46.02000000    10.39000000
   O     41.16000000    44.66000000     9.08000000
   H     41.62000000    49.55000000     7.19000000
   H     39.47000000    48.22000000     5.62000000
   H     39.46000000    46.29000000     6.88000000
   H     39.09000000    47.71000000     7.83000000
   H     41.26000000    47.71000000     9.02000000
   H     41.98000000    46.67000000     7.87000000
   N     42.48000000    48.10000000     4.83000000
   C     42.81000000    49.50000000     4.67000000
   H     43.77300000    49.59100000     4.16700000
   H     42.04100000    49.98900000     4.07200000
   H     42.86600000    49.97500000     5.64900000
   H     43.09000000    47.50000000     4.28000000
  Ca     32.95000000    45.57000000     2.91000000
   O     35.11000000    46.72000000     4.08000000
   H     35.49000000    47.59000000     4.03000000
   H     35.51000000    46.32000000     4.85000000
   O     33.15000000    44.76000000     5.52000000
   H     33.92000000    44.33000000     5.87000000
   H     32.59000000    44.91000000     6.28000000
   O     32.07000000    47.75000000     4.19000000
   H     32.37000000    48.19000000     4.98000000
   H     31.33000000    48.29000000     3.88000000

Ca 1.00



