%chk=loop2.cluster103.chk
%nprocshared=20
%mem=10GB
%nosave
#b3lyp/svp scf=(tight,noincore,xqc) Test 
#IOP(5/87=12) Density=Current Pop=(MK,readradii) iop(6/33=2) iop(6/42=6)

loop2.cluster103 

   -2  1 
   C     63.97000000    57.90000000    16.16000000
   C     63.02000000    58.50000000    17.18000000
   O     63.41000000    59.51000000    17.76000000
   H     64.92300000    57.67700000    16.63900000
   H     63.54100000    56.98100000    15.76000000
   H     64.13000000    58.61100000    15.34900000
   N     61.74000000    58.12000000    17.27000000
   C     60.70000000    58.64000000    18.14000000
   C     60.96000000    58.13000000    19.55000000
   O     61.22000000    56.94000000    19.71000000
   C     59.32000000    58.16000000    17.69000000
   C     58.19000000    58.44000000    18.67000000
   O     57.14000000    57.78000000    18.48000000
   O     58.26000000    59.40000000    19.46000000
   H     61.42000000    57.37000000    16.67000000
   H     60.78000000    59.73000000    18.11000000
   H     59.30000000    57.08000000    17.52000000
   H     59.19000000    58.64000000    16.72000000
   N     60.92000000    59.03000000    20.53000000
   C     61.22000000    58.68000000    21.90000000
   C     60.05000000    58.40000000    22.83000000
   O     60.21000000    58.01000000    23.99000000
   C     62.11000000    59.80000000    22.44000000
   H     60.56000000    59.93000000    20.26000000
   H     61.67000000    57.68000000    21.89000000
   H     62.83000000    60.11000000    21.68000000
   H     61.50000000    60.67000000    22.67000000
   H     62.56000000    59.46000000    23.37000000
   N     58.79000000    58.58000000    22.42000000
   C     57.51000000    58.53000000    23.09000000
   C     56.73000000    57.23000000    22.92000000
   O     55.69000000    56.98000000    23.53000000
   C     56.65000000    59.76000000    22.81000000
   C     57.53000000    60.99000000    22.87000000
   O     57.61000000    61.69000000    21.83000000
   O     58.05000000    61.25000000    23.98000000
   H     58.72000000    58.93000000    21.48000000
   H     57.71000000    58.53000000    24.16000000
   H     55.98000000    59.88000000    23.66000000
   H     56.25000000    59.60000000    21.81000000
   N     57.13000000    56.43000000    21.94000000
   C     56.62000000    55.14000000    21.52000000
   C     55.29000000    55.12000000    20.77000000
   O     54.85000000    54.03000000    20.41000000
   H     57.84000000    56.70000000    21.27000000
   H     56.44000000    54.52000000    22.40000000
   H     57.39000000    54.62000000    20.95000000
   N     54.63000000    56.26000000    20.57000000
   C     53.34000000    56.43000000    19.94000000
   C     53.34000000    56.44000000    18.42000000
   O     52.33000000    56.29000000    17.74000000
   C     52.65000000    57.59000000    20.66000000
   C     52.71000000    58.91000000    19.90000000
   N     51.81000000    59.81000000    20.30000000
   O     53.40000000    59.19000000    18.93000000
   H     55.12000000    57.07000000    20.92000000
   H     52.85000000    55.51000000    20.25000000
   H     53.09000000    57.86000000    21.62000000
   H     51.60000000    57.37000000    20.86000000
   H     51.20000000    59.69000000    21.10000000
   H     51.75000000    60.67000000    19.77000000
   N     54.53000000    56.67000000    17.85000000
   C     54.84000000    56.80000000    16.44000000
   C     54.61000000    58.15000000    15.77000000
   O     54.04000000    58.18000000    14.68000000
   H     55.30000000    56.75000000    18.48000000
   H     54.38000000    56.04000000    15.79000000
   H     55.88000000    56.64000000    16.15000000
   N     55.10000000    59.25000000    16.34000000
   C     55.01000000    60.56000000    15.72000000
   C     56.29000000    61.36000000    15.92000000
   O     56.97000000    61.23000000    16.93000000
   C     53.91000000    61.47000000    16.25000000
   C     53.40000000    62.47000000    15.21000000
   O     52.76000000    60.73000000    16.61000000
   H     55.74000000    59.16000000    17.12000000
   H     54.89000000    60.39000000    14.65000000
   H     54.16000000    62.03000000    17.15000000
   H     52.89000000    60.27000000    17.44000000
   H     54.18000000    63.19000000    14.97000000
   H     53.08000000    62.00000000    14.28000000
   H     52.54000000    62.99000000    15.64000000
   N     56.58000000    62.27000000    14.99000000
   C     57.90000000    62.87000000    14.92000000
   C     57.81000000    64.30000000    15.41000000
   O     56.96000000    65.10000000    15.01000000
   C     58.42000000    62.77000000    13.49000000
   C     58.52000000    61.32000000    13.01000000
   C     59.67000000    63.62000000    13.29000000
   C     59.51000000    60.56000000    13.89000000
   H     56.11000000    62.31000000    14.10000000
   H     58.68000000    62.29000000    15.41000000
   H     57.68000000    63.19000000    12.80000000
   H     58.96000000    61.26000000    12.02000000
   H     57.58000000    60.77000000    13.14000000
   H     59.39000000    64.67000000    13.33000000
   H     60.42000000    63.32000000    14.03000000
   H     60.06000000    63.46000000    12.28000000
   H     59.15000000    60.27000000    14.87000000
   H     59.84000000    59.67000000    13.34000000
   H     60.41000000    61.15000000    14.04000000
   N     58.72000000    64.63000000    16.33000000
   C     59.08000000    65.92000000    16.88000000
   C     60.36000000    66.45000000    16.26000000
   O     61.02000000    65.75000000    15.50000000
   C     59.22000000    65.86000000    18.40000000
   C     57.87000000    65.51000000    19.01000000
   O     57.88000000    64.49000000    19.74000000
   O     56.80000000    66.10000000    18.77000000
   H     59.36000000    63.89000000    16.60000000
   H     58.26000000    66.60000000    16.65000000
   H     59.59000000    66.80000000    18.82000000
   H     59.99000000    65.14000000    18.65000000
   N     60.81000000    67.69000000    16.48000000
   C     61.92000000    68.22000000    15.72000000
   C     63.29000000    67.69000000    16.12000000
   O     64.09000000    67.42000000    15.23000000
   C     61.83000000    69.74000000    15.89000000
   C     62.81000000    70.63000000    15.17000000
   C     63.38000000    70.35000000    13.93000000
   C     63.40000000    71.68000000    15.90000000
   C     64.38000000    71.17000000    13.39000000
   C     64.38000000    72.52000000    15.37000000
   C     64.83000000    72.31000000    14.06000000
   H     60.26000000    68.34000000    17.03000000
   H     61.76000000    68.03000000    14.66000000
   H     62.08000000    69.95000000    16.93000000
   H     60.79000000    70.01000000    15.73000000
   H     63.03000000    69.53000000    13.32000000
   H     63.11000000    71.87000000    16.92000000
   H     64.62000000    70.98000000    12.35000000
   H     64.65000000    73.41000000    15.92000000
   H     65.47000000    73.08000000    13.66000000
   N     63.66000000    67.48000000    17.38000000
   C     64.88000000    66.77000000    17.75000000
   C     64.93000000    65.32000000    17.30000000
   O     65.99000000    64.92000000    16.83000000
   C     65.08000000    66.95000000    19.25000000
   C     63.65000000    67.19000000    19.74000000
   C     62.94000000    67.87000000    18.58000000
   H     65.80000000    67.19000000    17.36000000
   H     65.46000000    66.06000000    19.75000000
   H     65.78000000    67.76000000    19.44000000
   H     63.16000000    66.23000000    19.91000000
   H     63.64000000    67.80000000    20.64000000
   H     61.93000000    67.49000000    18.46000000
   H     63.18000000    68.94000000    18.66000000
   N     63.82000000    64.58000000    17.19000000
   C     63.72000000    63.25000000    16.62000000
   C     63.86000000    63.35000000    15.11000000
   O     64.67000000    62.63000000    14.51000000
   C     62.36000000    62.69000000    17.02000000
   C     62.12000000    62.51000000    18.52000000
   C     60.65000000    62.20000000    18.77000000
   O     59.82000000    62.34000000    17.85000000
   O     60.31000000    61.72000000    19.88000000
   H     63.00000000    64.88000000    17.69000000
   H     64.52000000    62.61000000    17.01000000
   H     62.15000000    61.73000000    16.54000000
   H     61.69000000    63.48000000    16.67000000
   H     62.35000000    63.39000000    19.12000000
   H     62.65000000    61.65000000    18.91000000
   N     63.29000000    64.37000000    14.46000000
   C     63.47000000    64.63000000    13.05000000
   H     64.52500000    64.53000000    12.79400000
   H     62.88700000    63.91400000    12.47100000
   H     63.13500000    65.64200000    12.82100000
   H     62.63000000    64.91000000    15.00000000
  Ca     57.69000000    61.94000000    19.35000000
   O     55.78000000    63.65000000    18.37000000
   H     56.12000000    64.55000000    18.42000000
   H     54.94000000    63.68000000    18.81000000
   O     55.35000000    60.92000000    19.50000000
   H     54.71000000    61.45000000    19.99000000
   H     54.89000000    60.09000000    19.33000000

Ca 1.00



