%chk=loop4.cluster67.chk
%nprocshared=20
%mem=10GB
%nosave
#b3lyp/svp scf=(tight,noincore,xqc) Test 
#IOP(5/87=12) Density=Current Pop=(MK,readradii) iop(6/33=2) iop(6/42=6)

loop4.cluster67 

   -3  1 
   C    103.87000000    24.37000000    59.65000000
   C    105.13000000    25.18000000    59.37000000
   O    105.01000000    26.40000000    59.25000000
   H    103.06000000    24.72800000    59.01400000
   H    104.06000000    23.31800000    59.43900000
   H    103.58800000    24.48600000    60.69600000
   N    106.30000000    24.53000000    59.37000000
   C    107.57000000    25.15000000    59.05000000
   C    107.89000000    26.54000000    59.59000000
   O    108.64000000    27.33000000    59.02000000
   C    107.70000000    25.17000000    57.53000000
   C    107.46000000    23.80000000    56.93000000
   O    106.47000000    23.58000000    56.20000000
   O    108.21000000    22.87000000    57.29000000
   H    106.27000000    23.53000000    59.43000000
   H    108.34000000    24.42000000    59.31000000
   H    108.64000000    25.60000000    57.18000000
   H    106.93000000    25.82000000    57.12000000
   N    107.42000000    26.77000000    60.82000000
   C    107.63000000    27.93000000    61.66000000
   C    108.06000000    27.47000000    63.04000000
   O    107.27000000    26.83000000    63.72000000
   C    106.44000000    28.88000000    61.67000000
   C    106.15000000    29.42000000    60.28000000
   C    106.76000000    30.09000000    62.55000000
   C    104.68000000    29.80000000    60.09000000
   H    106.78000000    26.06000000    61.15000000
   H    108.43000000    28.54000000    61.22000000
   H    105.53000000    28.45000000    62.09000000
   H    106.41000000    28.77000000    59.44000000
   H    106.78000000    30.27000000    60.02000000
   H    106.92000000    29.78000000    63.58000000
   H    107.67000000    30.62000000    62.24000000
   H    105.83000000    30.67000000    62.56000000
   H    104.43000000    29.92000000    59.04000000
   H    104.00000000    29.07000000    60.51000000
   H    104.50000000    30.73000000    60.64000000
   N    109.21000000    27.89000000    63.58000000
   C    110.29000000    28.63000000    62.95000000
   C    110.86000000    28.05000000    61.67000000
   O    111.16000000    28.86000000    60.79000000
   C    111.34000000    29.06000000    63.97000000
   C    110.74000000    29.55000000    65.28000000
   O    110.18000000    30.67000000    65.20000000
   O    110.68000000    28.78000000    66.26000000
   H    109.33000000    27.57000000    64.53000000
   H    109.82000000    29.58000000    62.73000000
   H    111.82000000    29.93000000    63.52000000
   H    112.01000000    28.24000000    64.26000000
   N    110.92000000    26.72000000    61.52000000
   C    111.31000000    26.02000000    60.32000000
   C    112.81000000    25.89000000    60.10000000
   O    113.59000000    25.98000000    61.04000000
   H    110.82000000    26.13000000    62.33000000
   H    110.92000000    26.55000000    59.45000000
   H    110.90000000    25.01000000    60.41000000
   N    113.18000000    26.02000000    58.82000000
   C    114.55000000    26.30000000    58.43000000
   C    114.66000000    27.46000000    57.45000000
   O    115.67000000    27.75000000    56.82000000
   C    115.31000000    25.09000000    57.90000000
   C    114.77000000    24.31000000    56.71000000
   O    115.40000000    23.30000000    56.36000000
   O    113.78000000    24.73000000    56.06000000
   H    112.52000000    25.77000000    58.09000000
   H    115.04000000    26.69000000    59.32000000
   H    115.37000000    24.40000000    58.74000000
   H    116.34000000    25.38000000    57.71000000
   N    113.57000000    28.22000000    57.30000000
   C    113.44000000    29.33000000    56.38000000
   C    113.53000000    28.94000000    54.91000000
   O    113.86000000    29.85000000    54.14000000
   H    112.74000000    27.97000000    57.82000000
   H    114.09000000    30.19000000    56.53000000
   H    112.52000000    29.90000000    56.51000000
   N    113.43000000    27.69000000    54.46000000
   C    113.43000000    27.25000000    53.08000000
   C    112.42000000    28.04000000    52.25000000
   O    112.73000000    28.51000000    51.16000000
   C    114.83000000    27.12000000    52.49000000
   C    115.80000000    26.22000000    53.24000000
   C    117.21000000    26.07000000    52.68000000
   N    117.33000000    25.48000000    51.49000000
   O    118.20000000    26.46000000    53.30000000
   H    113.12000000    27.04000000    55.17000000
   H    113.05000000    26.24000000    52.96000000
   H    115.26000000    28.12000000    52.40000000
   H    114.68000000    26.70000000    51.49000000
   H    115.33000000    25.24000000    53.25000000
   H    115.85000000    26.49000000    54.30000000
   H    116.47000000    25.04000000    51.21000000
   H    118.23000000    25.06000000    51.31000000
   N    111.13000000    28.05000000    52.57000000
   C    110.10000000    28.27000000    51.57000000
   C    109.99000000    27.11000000    50.59000000
   O    110.45000000    26.00000000    50.83000000
   C    108.70000000    28.59000000    52.09000000
   C    107.99000000    27.45000000    52.82000000
   C    108.64000000    29.95000000    52.78000000
   H    110.80000000    27.85000000    53.50000000
   H    110.38000000    29.23000000    51.14000000
   H    108.19000000    28.79000000    51.15000000
   H    106.95000000    27.69000000    53.06000000
   H    107.91000000    26.66000000    52.07000000
   H    108.47000000    26.98000000    53.67000000
   H    107.69000000    30.31000000    53.18000000
   H    109.41000000    29.99000000    53.54000000
   H    108.92000000    30.69000000    52.02000000
   N    109.35000000    27.42000000    49.46000000
   C    108.90000000    26.46000000    48.47000000
   C    107.50000000    25.94000000    48.73000000
   O    106.67000000    26.60000000    49.36000000
   C    109.20000000    27.11000000    47.12000000
   C    108.91000000    26.14000000    45.98000000
   N    108.64000000    26.72000000    44.81000000
   O    109.05000000    24.92000000    46.02000000
   H    109.19000000    28.40000000    49.26000000
   H    109.51000000    25.56000000    48.55000000
   H    110.26000000    27.35000000    47.00000000
   H    108.59000000    28.01000000    47.10000000
   H    108.90000000    27.69000000    44.68000000
   H    108.35000000    26.19000000    44.01000000
   N    107.14000000    24.76000000    48.23000000
   C    105.94000000    24.03000000    48.58000000
   C    106.27000000    22.57000000    48.86000000
   O    107.13000000    21.96000000    48.24000000
   C    104.90000000    24.14000000    47.47000000
   C    104.99000000    23.28000000    46.23000000
   C    104.20000000    22.13000000    46.09000000
   C    105.87000000    23.58000000    45.18000000
   C    104.20000000    21.38000000    44.91000000
   C    105.90000000    22.83000000    44.00000000
   C    105.01000000    21.76000000    43.82000000
   O    104.90000000    21.06000000    42.66000000
   H    107.84000000    24.21000000    47.76000000
   H    105.51000000    24.41000000    49.51000000
   H    104.73000000    25.14000000    47.09000000
   H    103.96000000    23.88000000    47.96000000
   H    103.57000000    21.88000000    46.93000000
   H    106.53000000    24.42000000    45.29000000
   H    103.53000000    20.53000000    44.81000000
   H    106.44000000    23.15000000    43.12000000
   H    105.68000000    21.30000000    42.15000000
   N    105.44000000    21.90000000    49.67000000
   C    105.46000000    20.47000000    49.89000000
   C    104.34000000    19.69000000    49.21000000
   O    104.64000000    18.95000000    48.28000000
   C    105.71000000    20.21000000    51.37000000
   C    107.15000000    20.46000000    51.81000000
   C    107.21000000    20.45000000    53.33000000
   O    107.66000000    21.49000000    53.87000000
   O    106.75000000    19.50000000    53.99000000
   H    104.76000000    22.49000000    50.13000000
   H    106.36000000    20.10000000    49.39000000
   H    105.44000000    19.17000000    51.51000000
   H    105.08000000    20.84000000    52.00000000
   H    107.56000000    21.33000000    51.30000000
   H    107.62000000    19.56000000    51.43000000
   N    103.05000000    19.86000000    49.52000000
   C    102.46000000    20.50000000    50.67000000
   C    101.17000000    21.24000000    50.32000000
   O    100.61000000    20.93000000    49.28000000
   C    102.25000000    19.54000000    51.85000000
   C    101.34000000    18.36000000    51.53000000
   C    101.92000000    17.26000000    50.65000000
   O    102.82000000    16.51000000    51.09000000
   O    101.43000000    17.16000000    49.50000000
   H    102.28000000    19.39000000    49.06000000
   H    103.10000000    21.29000000    51.05000000
   H    101.87000000    20.10000000    52.71000000
   H    103.20000000    19.18000000    52.23000000
   H    100.39000000    18.65000000    51.07000000
   H    100.97000000    17.91000000    52.45000000
   N    100.66000000    22.10000000    51.21000000
   C     99.34000000    22.69000000    51.24000000
   H     98.64400000    21.99700000    51.71200000
   H     99.36900000    23.61900000    51.81000000
   H     99.01100000    22.89800000    50.22200000
   H    101.23000000    22.26000000    52.03000000
  Ca    106.74000000    20.93000000    56.24000000
   O    104.23000000    21.31000000    54.98000000
   H    103.85000000    22.04000000    54.49000000
   H    103.48000000    20.83000000    55.32000000
   O    109.27000000    19.75000000    56.14000000
   H    109.22000000    18.83000000    56.38000000
   H    109.83000000    20.14000000    56.81000000
   O    107.73000000    20.24000000    58.80000000
   H    108.18000000    19.44000000    59.07000000
   H    107.94000000    20.88000000    59.49000000

Ca 1.00



