%chk=loop2.cluster166.chk
%nprocshared=20
%mem=10GB
%nosave
#b3lyp/svp scf=(tight,noincore,xqc) Test 
#IOP(5/87=12) Density=Current Pop=(MK,readradii) iop(6/33=2) iop(6/42=6)

loop2.cluster166 

   -2  1 
   C     54.37000000    34.58000000    24.05000000
   C     54.02000000    34.26000000    22.60000000
   O     53.11000000    33.46000000    22.41000000
   H     55.19200000    35.29600000    24.07500000
   H     53.50000000    35.00800000    24.54800000
   H     54.66900000    33.66600000    24.56200000
   N     54.78000000    34.76000000    21.63000000
   C     54.36000000    34.83000000    20.24000000
   C     54.63000000    33.62000000    19.36000000
   O     53.99000000    33.48000000    18.32000000
   C     55.05000000    36.06000000    19.65000000
   C     54.47000000    36.65000000    18.38000000
   O     55.22000000    36.86000000    17.40000000
   O     53.29000000    37.05000000    18.39000000
   H     55.66000000    35.24000000    21.78000000
   H     53.27000000    34.88000000    20.23000000
   H     56.12000000    35.90000000    19.49000000
   H     55.02000000    36.83000000    20.41000000
   N     55.46000000    32.66000000    19.76000000
   C     55.85000000    31.37000000    19.23000000
   C     54.63000000    30.48000000    19.03000000
   O     54.63000000    29.78000000    18.02000000
   C     56.71000000    31.57000000    17.99000000
   H     55.84000000    32.93000000    20.65000000
   H     56.51000000    30.82000000    19.91000000
   H     56.06000000    31.96000000    17.20000000
   H     57.44000000    32.35000000    18.18000000
   H     57.21000000    30.71000000    17.54000000
   N     53.60000000    30.59000000    19.86000000
   C     52.25000000    30.05000000    19.86000000
   C     51.67000000    30.29000000    18.48000000
   O     51.06000000    29.35000000    17.96000000
   C     52.25000000    28.57000000    20.26000000
   C     52.93000000    28.34000000    21.60000000
   O     52.86000000    29.17000000    22.53000000
   O     53.31000000    27.19000000    21.90000000
   H     53.86000000    31.20000000    20.62000000
   H     51.61000000    30.57000000    20.57000000
   H     52.72000000    27.96000000    19.48000000
   H     51.20000000    28.28000000    20.19000000
   N     51.86000000    31.42000000    17.80000000
   C     51.35000000    31.75000000    16.48000000
   C     49.84000000    31.97000000    16.42000000
   O     49.48000000    32.98000000    15.80000000
   H     52.59000000    32.00000000    18.19000000
   H     51.53000000    30.87000000    15.87000000
   H     51.86000000    32.58000000    15.98000000
   N     49.05000000    31.00000000    16.88000000
   C     47.64000000    30.98000000    16.54000000
   C     46.76000000    30.55000000    17.71000000
   O     47.20000000    29.77000000    18.55000000
   C     47.45000000    30.10000000    15.32000000
   C     45.98000000    30.05000000    14.92000000
   N     45.46000000    28.84000000    14.69000000
   O     45.27000000    31.04000000    14.73000000
   H     49.48000000    30.17000000    17.26000000
   H     47.37000000    32.01000000    16.29000000
   H     47.85000000    29.11000000    15.54000000
   H     48.00000000    30.60000000    14.52000000
   H     46.01000000    28.00000000    14.66000000
   H     44.46000000    28.85000000    14.58000000
   N     45.58000000    31.16000000    17.81000000
   C     44.72000000    31.14000000    18.97000000
   C     45.21000000    32.14000000    20.02000000
   O     44.44000000    32.86000000    20.65000000
   H     45.21000000    31.60000000    16.98000000
   H     44.58000000    30.16000000    19.42000000
   H     43.70000000    31.40000000    18.68000000
   N     46.53000000    32.27000000    20.06000000
   C     47.25000000    33.33000000    20.76000000
   C     47.09000000    33.20000000    22.27000000
   O     47.08000000    32.12000000    22.85000000
   C     48.68000000    33.34000000    20.23000000
   C     49.60000000    34.49000000    20.62000000
   O     49.26000000    32.09000000    20.49000000
   H     47.14000000    31.66000000    19.54000000
   H     46.89000000    34.29000000    20.40000000
   H     48.53000000    33.42000000    19.15000000
   H     50.01000000    32.16000000    21.09000000
   H     50.11000000    34.26000000    21.56000000
   H     50.42000000    34.71000000    19.94000000
   H     49.02000000    35.39000000    20.82000000
   N     47.21000000    34.36000000    22.92000000
   C     47.19000000    34.57000000    24.35000000
   C     48.28000000    33.72000000    24.99000000
   O     49.40000000    33.50000000    24.53000000
   C     47.29000000    36.06000000    24.64000000
   C     47.12000000    36.30000000    26.14000000
   C     48.52000000    36.75000000    24.07000000
   C     46.99000000    37.75000000    26.60000000
   H     47.35000000    35.20000000    22.38000000
   H     46.23000000    34.17000000    24.70000000
   H     46.38000000    36.49000000    24.23000000
   H     47.86000000    35.76000000    26.72000000
   H     46.21000000    35.81000000    26.47000000
   H     48.48000000    37.83000000    24.21000000
   H     49.37000000    36.45000000    24.68000000
   H     48.60000000    36.55000000    23.00000000
   H     47.92000000    38.31000000    26.52000000
   H     46.21000000    38.42000000    26.24000000
   H     46.79000000    37.75000000    27.67000000
   N     47.94000000    32.98000000    26.05000000
   C     48.69000000    31.81000000    26.47000000
   C     47.82000000    30.56000000    26.48000000
   O     47.77000000    29.82000000    27.45000000
   C     49.44000000    32.18000000    27.75000000
   C     50.45000000    31.11000000    28.16000000
   O     51.33000000    30.67000000    27.38000000
   O     50.43000000    30.73000000    29.35000000
   H     47.04000000    33.14000000    26.47000000
   H     49.42000000    31.61000000    25.69000000
   H     48.64000000    32.26000000    28.48000000
   H     49.96000000    33.13000000    27.61000000
   N     47.08000000    30.34000000    25.38000000
   C     46.12000000    29.29000000    25.16000000
   C     44.83000000    29.38000000    25.96000000
   O     44.32000000    28.32000000    26.33000000
   C     45.78000000    29.12000000    23.68000000
   C     45.14000000    27.78000000    23.38000000
   C     45.88000000    26.60000000    23.22000000
   C     43.77000000    27.69000000    23.11000000
   C     45.35000000    25.36000000    22.85000000
   C     43.18000000    26.45000000    22.83000000
   C     43.96000000    25.29000000    22.70000000
   H     47.35000000    30.88000000    24.57000000
   H     46.61000000    28.37000000    25.49000000
   H     46.63000000    29.18000000    23.00000000
   H     45.17000000    30.02000000    23.55000000
   H     46.95000000    26.61000000    23.34000000
   H     43.18000000    28.58000000    23.28000000
   H     45.99000000    24.56000000    22.51000000
   H     42.12000000    26.27000000    22.83000000
   H     43.47000000    24.34000000    22.57000000
   N     44.09000000    30.48000000    26.12000000
   C     44.46000000    31.88000000    26.03000000
   C     44.73000000    32.60000000    27.34000000
   O     45.18000000    33.74000000    27.42000000
   C     43.25000000    32.52000000    25.35000000
   C     42.07000000    31.84000000    26.04000000
   C     42.66000000    30.47000000    26.36000000
   H     45.33000000    32.08000000    25.40000000
   H     43.21000000    33.61000000    25.39000000
   H     43.22000000    32.15000000    24.32000000
   H     41.74000000    32.43000000    26.89000000
   H     41.27000000    31.81000000    25.29000000
   H     42.45000000    30.15000000    27.38000000
   H     42.09000000    29.79000000    25.73000000
   N     44.47000000    31.92000000    28.46000000
   C     44.39000000    32.34000000    29.84000000
   C     45.70000000    32.77000000    30.48000000
   O     46.52000000    31.95000000    30.89000000
   C     43.70000000    31.29000000    30.71000000
   C     43.48000000    31.79000000    32.13000000
   C     42.56000000    30.90000000    32.96000000
   O     42.93000000    29.76000000    33.32000000
   O     41.42000000    31.36000000    33.19000000
   H     44.26000000    30.95000000    28.30000000
   H     43.71000000    33.20000000    29.82000000
   H     44.29000000    30.39000000    30.88000000
   H     42.76000000    31.02000000    30.21000000
   H     43.13000000    32.82000000    32.20000000
   H     44.48000000    31.73000000    32.57000000
   N     45.88000000    34.08000000    30.62000000
   C     47.18000000    34.69000000    30.82000000
   H     47.88900000    34.27600000    30.10300000
   H     47.10300000    35.76700000    30.67300000
   H     47.52600000    34.48500000    31.83300000
   H     45.08000000    34.69000000    30.46000000
  Ca     52.12000000    27.29000000    24.37000000
   O     50.13000000    25.87000000    25.28000000
   H     49.72000000    26.03000000    26.13000000
   H     50.06000000    24.93000000    25.14000000
   O     50.53000000    28.06000000    26.74000000
   H     50.73000000    28.94000000    27.05000000
   H     49.71000000    27.83000000    27.17000000
   O     53.07000000    25.96000000    27.17000000
   H     52.38000000    25.67000000    27.76000000
   H     53.66000000    26.47000000    27.71000000
   O     53.03000000    29.41000000    25.90000000
   H     53.68000000    30.09000000    25.73000000
   H     52.34000000    29.86000000    26.38000000
   O     54.81000000    27.04000000    24.76000000
   H     55.58000000    27.40000000    24.30000000
   H     55.12000000    26.22000000    25.13000000
   O     52.59000000    24.58000000    24.22000000
   H     52.56000000    23.94000000    23.51000000
   H     52.96000000    24.09000000    24.96000000
   O     50.31000000    26.85000000    22.46000000
   H     49.63000000    26.21000000    22.68000000
   H     50.17000000    27.01000000    21.52000000
   O     50.20000000    29.23000000    23.89000000
   H     49.39000000    28.79000000    23.62000000
   H     50.17000000    30.08000000    23.45000000

Ca 1.00



