%chk=loop2.cluster134.chk
%nprocshared=20
%mem=10GB
%nosave
#b3lyp/svp scf=(tight,noincore,xqc) Test 
#IOP(5/87=12) Density=Current Pop=(MK,readradii) iop(6/33=2) iop(6/42=6)

loop2.cluster134 

   -2  1 
   C     49.19000000    45.03000000     8.61000000
   C     48.39000000    46.09000000     7.87000000
   O     48.39000000    47.26000000     8.26000000
   H     50.11000000    45.47100000     8.99300000
   H     48.60000000    44.64300000     9.44100000
   H     49.43500000    44.21600000     7.92700000
   N     47.65000000    45.97000000     6.77000000
   C     47.49000000    44.92000000     5.78000000
   C     46.09000000    44.35000000     5.64000000
   O     45.10000000    45.07000000     5.80000000
   C     47.92000000    45.36000000     4.39000000
   C     47.42000000    46.72000000     3.93000000
   O     48.03000000    47.31000000     3.01000000
   O     46.32000000    47.12000000     4.36000000
   H     47.10000000    46.79000000     6.55000000
   H     48.10000000    44.04000000     6.02000000
   H     47.55000000    44.61000000     3.69000000
   H     49.01000000    45.48000000     4.38000000
   N     45.93000000    43.03000000     5.46000000
   C     44.73000000    42.23000000     5.45000000
   C     43.71000000    42.42000000     4.34000000
   O     43.23000000    41.48000000     3.70000000
   C     44.15000000    42.28000000     6.86000000
   H     46.77000000    42.48000000     5.29000000
   H     45.07000000    41.20000000     5.32000000
   H     43.30000000    41.60000000     6.98000000
   H     44.95000000    42.13000000     7.59000000
   H     43.84000000    43.31000000     7.02000000
   N     43.43000000    43.68000000     3.99000000
   C     42.58000000    44.11000000     2.90000000
   C     43.23000000    45.21000000     2.06000000
   O     44.05000000    46.01000000     2.48000000
   C     41.27000000    44.69000000     3.43000000
   C     41.43000000    45.19000000     4.86000000
   O     42.26000000    46.06000000     5.21000000
   O     40.52000000    44.76000000     5.60000000
   H     43.76000000    44.49000000     4.48000000
   H     42.42000000    43.23000000     2.28000000
   H     40.63000000    43.82000000     3.51000000
   H     40.82000000    45.48000000     2.82000000
   N     42.87000000    45.24000000     0.77000000
   C     43.43000000    46.07000000    -0.27000000
   C     43.13000000    47.57000000    -0.22000000
   O     43.42000000    48.35000000    -1.12000000
   H     42.24000000    44.51000000     0.45000000
   H     43.24000000    45.72000000    -1.28000000
   H     44.49000000    45.94000000    -0.10000000
   N     42.53000000    48.10000000     0.84000000
   C     42.22000000    49.50000000     1.02000000
   C     43.26000000    50.50000000     1.53000000
   O     42.99000000    51.69000000     1.62000000
   C     40.98000000    49.56000000     1.92000000
   C     41.14000000    49.02000000     3.33000000
   N     39.98000000    48.67000000     3.88000000
   O     42.24000000    48.80000000     3.84000000
   H     42.19000000    47.47000000     1.55000000
   H     41.88000000    49.86000000     0.05000000
   H     40.23000000    48.97000000     1.40000000
   H     40.58000000    50.57000000     1.93000000
   H     39.08000000    48.88000000     3.47000000
   H     40.02000000    48.34000000     4.84000000
   N     44.45000000    50.04000000     1.91000000
   C     45.54000000    50.84000000     2.44000000
   C     45.59000000    50.98000000     3.95000000
   O     45.05000000    50.08000000     4.60000000
   H     44.58000000    49.04000000     1.84000000
   H     45.49000000    51.82000000     1.96000000
   H     46.49000000    50.37000000     2.16000000
   N     46.20000000    52.04000000     4.48000000
   C     47.17000000    52.92000000     3.87000000
   C     48.45000000    52.87000000     4.69000000
   O     49.52000000    53.24000000     4.21000000
   C     46.67000000    54.36000000     3.77000000
   C     45.42000000    54.56000000     2.92000000
   O     46.35000000    54.95000000     5.01000000
   H     46.05000000    52.14000000     5.47000000
   H     47.47000000    52.59000000     2.87000000
   H     47.46000000    54.94000000     3.29000000
   H     47.10000000    55.45000000     5.33000000
   H     45.65000000    54.09000000     1.97000000
   H     44.63000000    53.95000000     3.37000000
   H     45.09000000    55.60000000     2.96000000
   N     48.31000000    52.65000000     6.00000000
   C     49.33000000    52.69000000     7.03000000
   C     49.91000000    54.08000000     7.26000000
   O     51.02000000    54.41000000     6.84000000
   C     50.35000000    51.55000000     6.98000000
   C     49.73000000    50.24000000     6.52000000
   C     51.21000000    51.40000000     8.23000000
   C     50.60000000    48.98000000     6.46000000
   H     47.39000000    52.45000000     6.37000000
   H     48.82000000    52.40000000     7.94000000
   H     51.03000000    51.80000000     6.16000000
   H     49.25000000    50.36000000     5.55000000
   H     48.98000000    50.04000000     7.28000000
   H     51.87000000    52.27000000     8.25000000
   H     50.51000000    51.42000000     9.07000000
   H     51.83000000    50.51000000     8.36000000
   H     50.74000000    48.71000000     7.50000000
   H     50.14000000    48.13000000     5.95000000
   H     51.53000000    49.24000000     5.95000000
   N     49.26000000    54.98000000     8.01000000
   C     48.04000000    54.68000000     8.73000000
   C     48.37000000    53.90000000     9.99000000
   O     47.70000000    52.91000000    10.28000000
   C     47.21000000    55.94000000     8.99000000
   C     47.90000000    57.01000000     9.82000000
   O     49.13000000    56.93000000    10.04000000
   O     47.12000000    57.81000000    10.38000000
   H     49.58000000    55.94000000     8.04000000
   H     47.39000000    54.05000000     8.13000000
   H     46.31000000    55.73000000     9.56000000
   H     46.91000000    56.34000000     8.02000000
   N     49.46000000    54.14000000    10.72000000
   C     50.01000000    53.50000000    11.90000000
   C     48.98000000    53.58000000    13.02000000
   O     48.41000000    54.67000000    13.05000000
   C     51.44000000    53.88000000    12.28000000
   C     51.83000000    55.26000000    12.75000000
   C     52.52000000    56.14000000    11.90000000
   C     51.73000000    55.57000000    14.12000000
   C     52.85000000    57.40000000    12.39000000
   C     52.20000000    56.77000000    14.66000000
   C     52.67000000    57.72000000    13.74000000
   H     50.06000000    54.84000000    10.30000000
   H     50.17000000    52.44000000    11.74000000
   H     52.17000000    53.70000000    11.49000000
   H     51.68000000    53.20000000    13.10000000
   H     52.67000000    55.94000000    10.85000000
   H     51.18000000    54.81000000    14.66000000
   H     53.30000000    58.19000000    11.80000000
   H     52.26000000    57.04000000    15.70000000
   H     52.98000000    58.71000000    14.04000000
   N     48.80000000    52.67000000    13.98000000
   C     49.54000000    51.43000000    14.14000000
   C     49.14000000    50.35000000    13.15000000
   O     48.67000000    50.69000000    12.07000000
   C     49.25000000    50.97000000    15.57000000
   C     47.83000000    51.44000000    15.85000000
   C     47.82000000    52.73000000    15.04000000
   H     50.61000000    51.61000000    14.03000000
   H     49.24000000    49.91000000    15.81000000
   H     50.00000000    51.36000000    16.26000000
   H     47.09000000    50.78000000    15.40000000
   H     47.69000000    51.68000000    16.90000000
   H     46.81000000    52.96000000    14.69000000
   H     48.08000000    53.59000000    15.65000000
   N     49.56000000    49.10000000    13.36000000
   C     49.31000000    48.00000000    12.45000000
   C     50.11000000    46.75000000    12.78000000
   O     49.51000000    45.80000000    13.28000000
   C     47.82000000    47.70000000    12.33000000
   C     46.88000000    47.47000000    13.51000000
   C     45.53000000    46.93000000    13.04000000
   O     45.03000000    47.16000000    11.92000000
   O     44.91000000    46.13000000    13.76000000
   H     50.14000000    48.82000000    14.14000000
   H     49.57000000    48.36000000    11.45000000
   H     47.76000000    46.84000000    11.67000000
   H     47.32000000    48.52000000    11.80000000
   H     46.67000000    48.44000000    13.97000000
   H     47.31000000    46.80000000    14.24000000
   N     51.40000000    46.69000000    12.47000000
   C     52.36000000    47.75000000    12.23000000
   H     53.27700000    47.32400000    11.82200000
   H     51.94400000    48.46400000    11.51900000
   H     52.58300000    48.25900000    13.16800000
   H     51.84000000    45.81000000    12.70000000
  Ca     44.16000000    47.66000000     5.69000000
   O     42.54000000    49.79000000     6.36000000
   H     41.90000000    49.99000000     5.68000000
   H     42.28000000    50.33000000     7.11000000
   O     46.16000000    48.79000000     7.08000000
   H     45.99000000    49.73000000     7.13000000
   H     47.05000000    48.69000000     7.44000000
   O     43.60000000    47.30000000     8.21000000
   H     43.91000000    46.54000000     8.71000000
   H     43.76000000    48.05000000     8.78000000

Ca 1.00



