%chk=loop3.cluster109.chk
%nprocshared=20
%mem=10GB
%nosave
#b3lyp/svp scf=(tight,noincore,xqc) Test 
#IOP(5/87=12) Density=Current Pop=(MK,readradii) iop(6/33=2) iop(6/42=6)

loop3.cluster109 

   0  1 
   C    102.67000000    56.72000000    37.20000000
   C    102.52000000    57.02000000    35.72000000
   O    102.51000000    56.14000000    34.86000000
   H    103.27500000    57.49700000    37.66800000
   H    101.68600000    56.69500000    37.66800000
   H    103.15800000    55.75400000    37.32800000
   N    102.41000000    58.29000000    35.32000000
   C    102.19000000    58.74000000    33.96000000
   C    103.49000000    58.91000000    33.17000000
   O    104.51000000    59.32000000    33.72000000
   C    101.28000000    59.96000000    33.88000000
   C    101.60000000    61.12000000    34.81000000
   O    101.30000000    60.90000000    36.01000000
   O    101.93000000    62.26000000    34.42000000
   H    102.24000000    58.96000000    36.06000000
   H    101.67000000    57.93000000    33.47000000
   H    100.24000000    59.70000000    34.09000000
   H    101.16000000    60.32000000    32.86000000
   N    103.36000000    58.84000000    31.85000000
   C    104.50000000    59.07000000    30.98000000
   C    105.49000000    57.90000000    31.00000000
   O    106.69000000    58.05000000    30.81000000
   C    104.06000000    59.39000000    29.56000000
   C    105.22000000    59.83000000    28.67000000
   C    104.63000000    60.52000000    27.45000000
   C    104.19000000    61.96000000    27.66000000
   N    103.36000000    62.51000000    26.58000000
   H    102.42000000    58.70000000    31.52000000
   H    105.09000000    59.92000000    31.32000000
   H    103.32000000    60.17000000    29.69000000
   H    103.67000000    58.47000000    29.12000000
   H    105.76000000    58.94000000    28.35000000
   H    105.87000000    60.52000000    29.21000000
   H    103.83000000    59.85000000    27.12000000
   H    105.34000000    60.58000000    26.63000000
   H    105.07000000    62.60000000    27.71000000
   H    103.56000000    62.08000000    28.55000000
   H    103.04000000    63.45000000    26.75000000
   H    103.91000000    62.46000000    25.74000000
   H    102.57000000    61.94000000    26.29000000
   N    104.93000000    56.71000000    31.24000000
   C    105.50000000    55.39000000    31.13000000
   C    105.81000000    54.88000000    29.73000000
   O    105.65000000    53.70000000    29.41000000
   C    104.64000000    54.37000000    31.88000000
   C    103.18000000    54.39000000    31.45000000
   O    102.42000000    53.43000000    31.73000000
   O    102.71000000    55.42000000    30.93000000
   H    103.92000000    56.72000000    31.33000000
   H    106.45000000    55.30000000    31.66000000
   H    104.57000000    54.78000000    32.89000000
   H    105.10000000    53.39000000    31.86000000
   N    106.24000000    55.75000000    28.81000000
   C    106.65000000    55.47000000    27.45000000
   C    105.57000000    55.85000000    26.45000000
   O    104.65000000    56.58000000    26.80000000
   H    106.41000000    56.70000000    29.12000000
   H    106.86000000    54.40000000    27.44000000
   H    107.37000000    56.27000000    27.25000000
   N    105.64000000    55.39000000    25.20000000
   C    106.60000000    54.51000000    24.57000000
   C    105.92000000    53.45000000    23.72000000
   O    104.88000000    53.73000000    23.11000000
   C    107.46000000    55.28000000    23.58000000
   C    108.26000000    56.30000000    24.38000000
   N    107.77000000    57.53000000    24.47000000
   O    109.20000000    55.85000000    25.03000000
   H    104.86000000    55.71000000    24.64000000
   H    107.29000000    54.01000000    25.26000000
   H    106.83000000    55.80000000    22.86000000
   H    108.16000000    54.52000000    23.22000000
   H    106.91000000    57.72000000    23.96000000
   H    108.26000000    58.20000000    25.05000000
   N    106.38000000    52.22000000    23.48000000
   C    107.58000000    51.55000000    23.94000000
   C    107.71000000    51.28000000    25.43000000
   O    106.96000000    51.83000000    26.23000000
   H    105.79000000    51.71000000    22.84000000
   H    108.38000000    52.16000000    23.53000000
   H    107.62000000    50.54000000    23.52000000
   N    108.62000000    50.36000000    25.78000000
   C    108.83000000    49.87000000    27.13000000
   C    110.31000000    49.75000000    27.46000000
   O    110.72000000    48.95000000    28.29000000
   C    108.03000000    48.59000000    27.33000000
   C    106.57000000    48.68000000    26.97000000
   C    105.57000000    49.13000000    27.84000000
   C    106.27000000    48.14000000    25.72000000
   C    104.23000000    48.87000000    27.53000000
   C    104.93000000    47.91000000    25.38000000
   C    103.92000000    48.31000000    26.28000000
   O    102.61000000    48.36000000    25.90000000
   H    109.19000000    49.95000000    25.05000000
   H    108.45000000    50.63000000    27.82000000
   H    108.05000000    48.34000000    28.39000000
   H    108.47000000    47.76000000    26.76000000
   H    105.84000000    49.61000000    28.77000000
   H    107.06000000    47.82000000    25.05000000
   H    103.40000000    49.25000000    28.12000000
   H    104.66000000    47.43000000    24.45000000
   H    102.38000000    47.70000000    25.26000000
   N    111.19000000    50.48000000    26.76000000
   C    112.62000000    50.55000000    27.02000000
   C    113.03000000    52.01000000    27.08000000
   O    113.58000000    52.58000000    26.14000000
   C    113.55000000    49.74000000    26.12000000
   C    114.93000000    49.55000000    26.73000000
   C    112.88000000    48.38000000    25.94000000
   C    115.95000000    48.89000000    25.80000000
   H    110.81000000    51.23000000    26.21000000
   H    112.85000000    50.09000000    27.98000000
   H    113.59000000    50.19000000    25.13000000
   H    114.80000000    49.01000000    27.67000000
   H    115.40000000    50.50000000    26.99000000
   H    112.89000000    47.89000000    26.92000000
   H    111.87000000    48.43000000    25.54000000
   H    113.43000000    47.74000000    25.25000000
   H    115.98000000    49.51000000    24.90000000
   H    116.98000000    48.98000000    26.15000000
   H    115.62000000    47.89000000    25.53000000
   N    112.93000000    52.69000000    28.22000000
   C    113.78000000    53.78000000    28.64000000
   C    112.98000000    55.00000000    29.07000000
   O    113.58000000    56.04000000    29.35000000
   C    114.66000000    53.33000000    29.81000000
   O    113.96000000    53.10000000    31.01000000
   H    112.27000000    52.36000000    28.91000000
   H    114.48000000    54.08000000    27.87000000
   H    115.51000000    54.01000000    29.86000000
   H    115.14000000    52.37000000    29.62000000
   H    113.12000000    52.67000000    30.86000000
   N    111.66000000    54.96000000    29.26000000
   C    110.87000000    55.99000000    29.92000000
   C    110.82000000    55.75000000    31.42000000
   O    109.79000000    55.98000000    32.06000000
   C    109.54000000    56.20000000    29.19000000
   H    111.25000000    54.04000000    29.22000000
   H    111.39000000    56.93000000    29.79000000
   H    109.10000000    57.17000000    29.45000000
   H    109.61000000    56.24000000    28.11000000
   H    108.79000000    55.47000000    29.49000000
   N    111.95000000    55.46000000    32.06000000
   C    112.04000000    55.09000000    33.46000000
   C    110.99000000    54.11000000    33.97000000
   O    110.78000000    53.95000000    35.17000000
   C    112.11000000    56.37000000    34.29000000
   H    112.82000000    55.38000000    31.54000000
   H    112.96000000    54.52000000    33.57000000
   H    112.14000000    56.16000000    35.37000000
   H    112.93000000    56.96000000    33.89000000
   H    111.17000000    56.88000000    34.10000000
   N    110.39000000    53.31000000    33.09000000
   C    109.37000000    52.34000000    33.43000000
   C    109.97000000    51.03000000    33.94000000
   O    109.31000000    50.28000000    34.65000000
   C    108.60000000    52.02000000    32.15000000
   C    109.20000000    51.30000000    30.95000000
   C    110.22000000    52.13000000    30.19000000
   O    111.39000000    52.28000000    30.63000000
   O    109.93000000    52.75000000    29.15000000
   H    110.75000000    53.47000000    32.16000000
   H    108.64000000    52.75000000    34.12000000
   H    108.22000000    52.98000000    31.80000000
   H    107.72000000    51.45000000    32.47000000
   H    108.46000000    50.91000000    30.25000000
   H    109.66000000    50.34000000    31.17000000
   N    111.21000000    50.73000000    33.55000000
   C    111.95000000    49.55000000    33.93000000
   H    112.88600000    49.84600000    34.40500000
   H    111.35900000    48.96000000    34.63000000
   H    112.16600000    48.95400000    33.04300000
   H    111.59000000    51.40000000    32.90000000
  Ca     99.99200000    53.01000000    32.05000000
   O    100.36200000    55.65000000    31.91000000
   H    101.25200000    55.70000000    31.55000000
   H    100.09200000    56.57000000    32.01000000
   O     98.57000000    50.86000000    30.79000000
   H     97.70000000    50.54000000    30.54000000
   H     99.09000000    50.07000000    30.95000000
   O    100.61200000    53.89000000    34.58000000
   H    101.27200000    54.57000000    34.74000000
   H    100.73200000    53.27000000    35.29000000
   O    100.36200000    53.71000000    29.34000000
   H    101.21200000    53.96000000    28.97000000
   H     99.72200000    54.23000000    28.85000000
   O    100.79200000    50.26000000    32.92000000
   H    101.34200000    49.67000000    32.39000000
   H    100.29200000    49.67000000    33.48000000

Ca 1.00



