%chk=loop2.cluster24.chk
%nprocshared=20
%mem=10GB
%nosave
#b3lyp/svp scf=(tight,noincore,xqc) Test 
#IOP(5/87=12) Density=Current Pop=(MK,readradii) iop(6/33=2) iop(6/42=6)

loop2.cluster24 

   -2  1 
   C     59.11000000    28.48000000    10.08000000
   C     59.56000000    28.83000000     8.67000000
   O     59.21000000    28.09000000     7.75000000
   H     58.08200000    28.11900000    10.05300000
   H     59.75700000    27.70300000    10.48600000
   H     59.16600000    29.36700000    10.71100000
   N     60.25000000    29.95000000     8.42000000
   C     60.58000000    30.41000000     7.09000000
   C     61.43000000    29.48000000     6.25000000
   O     61.42000000    29.52000000     5.02000000
   C     61.34000000    31.73000000     7.19000000
   C     61.32000000    32.43000000     5.83000000
   O     62.37000000    32.83000000     5.28000000
   O     60.25000000    32.57000000     5.20000000
   H     60.54000000    30.45000000     9.25000000
   H     59.62000000    30.38000000     6.57000000
   H     62.37000000    31.50000000     7.46000000
   H     60.88000000    32.42000000     7.91000000
   N     62.21000000    28.53000000     6.79000000
   C     62.95000000    27.40000000     6.28000000
   C     62.09000000    26.37000000     5.57000000
   O     62.74000000    25.44000000     5.09000000
   C     64.21000000    27.83000000     5.53000000
   H     62.24000000    28.61000000     7.79000000
   H     63.34000000    26.91000000     7.17000000
   H     64.70000000    28.67000000     6.01000000
   H     64.89000000    26.98000000     5.43000000
   H     63.91000000    28.18000000     4.54000000
   N     60.77000000    26.57000000     5.53000000
   C     59.82000000    25.75000000     4.81000000
   C     60.16000000    25.60000000     3.34000000
   O     59.84000000    24.59000000     2.72000000
   C     59.39000000    24.52000000     5.60000000
   C     58.06000000    23.92000000     5.16000000
   O     57.95000000    22.68000000     5.05000000
   O     57.05000000    24.65000000     5.09000000
   H     60.35000000    27.29000000     6.10000000
   H     58.98000000    26.45000000     4.80000000
   H     59.27000000    24.91000000     6.61000000
   H     60.22000000    23.81000000     5.63000000
   N     60.80000000    26.60000000     2.71000000
   C     60.85000000    26.72000000     1.27000000
   C     61.88000000    27.72000000     0.77000000
   O     62.89000000    27.91000000     1.45000000
   H     60.91000000    27.39000000     3.33000000
   H     59.91000000    27.16000000     0.96000000
   H     61.09000000    25.79000000     0.75000000
   N     61.63000000    28.44000000    -0.32000000
   C     62.49000000    29.35000000    -1.06000000
   C     62.03000000    30.78000000    -0.82000000
   O     62.90000000    31.65000000    -0.79000000
   C     62.85000000    28.86000000    -2.46000000
   C     61.65000000    29.07000000    -3.37000000
   N     60.94000000    28.03000000    -3.81000000
   O     61.16000000    30.17000000    -3.61000000
   H     60.85000000    28.14000000    -0.89000000
   H     63.46000000    29.34000000    -0.57000000
   H     63.05000000    27.80000000    -2.31000000
   H     63.75000000    29.37000000    -2.83000000
   H     61.47000000    27.17000000    -3.74000000
   H     60.00000000    28.07000000    -4.20000000
   N     60.71000000    30.98000000    -0.77000000
   C     60.14000000    32.31000000    -0.76000000
   C     59.78000000    32.68000000     0.67000000
   O     60.50000000    33.37000000     1.38000000
   H     60.03000000    30.24000000    -0.77000000
   H     59.26000000    32.32000000    -1.40000000
   H     60.90000000    33.02000000    -1.09000000
   N     58.79000000    31.97000000     1.22000000
   C     58.77000000    31.47000000     2.58000000
   C     57.47000000    31.86000000     3.27000000
   O     56.40000000    31.85000000     2.67000000
   C     59.05000000    29.97000000     2.64000000
   C     58.50000000    29.26000000     3.87000000
   O     58.54000000    29.35000000     1.48000000
   H     58.19000000    31.38000000     0.65000000
   H     59.63000000    31.92000000     3.07000000
   H     60.12000000    29.77000000     2.60000000
   H     57.65000000    29.12000000     1.77000000
   H     59.09000000    29.59000000     4.72000000
   H     57.44000000    29.45000000     4.06000000
   H     58.65000000    28.22000000     3.56000000
   N     57.57000000    32.24000000     4.55000000
   C     56.48000000    32.69000000     5.38000000
   C     55.58000000    31.53000000     5.79000000
   O     55.88000000    30.35000000     5.65000000
   C     57.09000000    33.44000000     6.56000000
   C     56.15000000    34.43000000     7.24000000
   C     57.57000000    32.48000000     7.65000000
   C     56.75000000    35.45000000     8.20000000
   H     58.52000000    32.27000000     4.91000000
   H     56.03000000    33.49000000     4.78000000
   H     57.93000000    34.04000000     6.20000000
   H     55.44000000    33.85000000     7.83000000
   H     55.57000000    34.98000000     6.50000000
   H     58.27000000    33.06000000     8.25000000
   H     56.76000000    32.14000000     8.29000000
   H     57.99000000    31.56000000     7.24000000
   H     57.39000000    35.04000000     8.99000000
   H     57.42000000    36.07000000     7.60000000
   H     55.95000000    36.06000000     8.63000000
   N     54.53000000    31.90000000     6.52000000
   C     53.47000000    31.09000000     7.09000000
   C     52.36000000    31.88000000     7.76000000
   O     52.47000000    33.10000000     7.88000000
   C     54.06000000    30.08000000     8.07000000
   C     53.41000000    28.74000000     7.77000000
   O     53.86000000    27.96000000     6.91000000
   O     52.35000000    28.45000000     8.37000000
   H     54.31000000    32.88000000     6.41000000
   H     53.07000000    30.58000000     6.21000000
   H     53.95000000    30.39000000     9.11000000
   H     55.10000000    29.84000000     7.85000000
   N     51.26000000    31.23000000     8.16000000
   C     50.00000000    31.93000000     8.31000000
   C     49.01000000    30.78000000     8.34000000
   O     48.23000000    30.86000000     7.39000000
   C     49.90000000    32.82000000     9.54000000
   C     48.57000000    33.37000000    10.02000000
   C     47.49000000    33.61000000     9.16000000
   C     48.39000000    33.56000000    11.39000000
   C     46.26000000    34.06000000     9.65000000
   C     47.19000000    34.10000000    11.86000000
   C     46.12000000    34.39000000    11.00000000
   H     51.30000000    30.23000000     8.10000000
   H     49.86000000    32.61000000     7.47000000
   H     50.56000000    33.67000000     9.36000000
   H     50.22000000    32.20000000    10.37000000
   H     47.63000000    33.48000000     8.10000000
   H     49.20000000    33.27000000    12.05000000
   H     45.51000000    34.35000000     8.93000000
   H     47.01000000    34.24000000    12.91000000
   H     45.19000000    34.77000000    11.40000000
   N     49.01000000    29.74000000     9.18000000
   C     48.80000000    29.94000000    10.61000000
   C     50.01000000    29.76000000    11.51000000
   O     50.12000000    30.45000000    12.52000000
   C     47.57000000    29.11000000    10.95000000
   C     46.92000000    28.63000000     9.65000000
   C     48.24000000    28.55000000     8.89000000
   H     48.49000000    30.98000000    10.70000000
   H     48.00000000    28.19000000    11.35000000
   H     46.93000000    29.60000000    11.68000000
   H     46.44000000    27.66000000     9.75000000
   H     46.23000000    29.40000000     9.29000000
   H     48.87000000    27.76000000     9.27000000
   H     48.06000000    28.50000000     7.81000000
   N     50.95000000    28.86000000    11.19000000
   C     51.97000000    28.32000000    12.06000000
   C     53.12000000    29.31000000    12.20000000
   O     54.11000000    29.00000000    12.86000000
   C     52.62000000    27.08000000    11.44000000
   C     51.67000000    25.91000000    11.16000000
   C     50.93000000    25.41000000    12.39000000
   O     51.44000000    25.60000000    13.52000000
   O     49.89000000    24.72000000    12.25000000
   H     50.85000000    28.33000000    10.34000000
   H     51.63000000    28.18000000    13.08000000
   H     53.30000000    26.59000000    12.14000000
   H     53.14000000    27.39000000    10.54000000
   H     52.21000000    25.06000000    10.75000000
   H     50.95000000    26.28000000    10.43000000
   N     53.05000000    30.57000000    11.79000000
   C     54.05000000    31.56000000    12.13000000
   H     54.93100000    31.41500000    11.50500000
   H     53.64600000    32.55800000    11.96100000
   H     54.32700000    31.45200000    13.17900000
   H     52.29000000    30.85000000    11.18000000
  Ca     54.91000000    25.72000000     6.15000000
   O     52.37000000    25.10000000     5.25000000
   H     51.75000000    24.40000000     5.46000000
   H     51.83000000    25.89000000     5.20000000
   O     56.75000000    27.73000000     6.16000000
   H     56.46000000    28.62000000     5.98000000
   H     57.64000000    27.83000000     6.50000000
   O     56.43000000    24.58000000     8.36000000
   H     56.75000000    23.70000000     8.21000000
   H     56.86000000    24.86000000     9.17000000
   O     55.07000000    26.80000000     3.77000000
   H     55.76000000    27.44000000     3.59000000
   H     54.49000000    26.86000000     3.01000000
   O     53.94000000    22.59000000     6.03000000
   H     54.50000000    22.35000000     5.29000000
   H     53.14000000    22.08000000     5.90000000
   O     53.17000000    25.16000000     8.25000000
   H     52.81000000    24.44000000     8.76000000
   H     52.53000000    25.87000000     8.35000000

Ca 1.00



