%chk=loop2.cluster190.chk
%nprocshared=20
%mem=10GB
%nosave
#b3lyp/svp scf=(tight,noincore,xqc) Test 
#IOP(5/87=12) Density=Current Pop=(MK,readradii) iop(6/33=2) iop(6/42=6)

loop2.cluster190 

   -2  1 
   C     49.46000000   -14.88000000    25.69000000
   C     49.28000000   -16.09000000    26.59000000
   O     48.47000000   -16.00000000    27.51000000
   H     50.48800000   -14.84600000    25.33000000
   H     48.78000000   -14.95400000    24.84100000
   H     49.24200000   -13.97200000    26.25300000
   N     50.03000000   -17.17000000    26.36000000
   C     50.06000000   -18.35000000    27.20000000
   C     50.64000000   -18.17000000    28.60000000
   O     50.19000000   -18.83000000    29.53000000
   C     50.89000000   -19.47000000    26.56000000
   C     50.68000000   -20.87000000    27.11000000
   O     51.68000000   -21.43000000    27.63000000
   O     49.56000000   -21.40000000    26.96000000
   H     50.56000000   -17.13000000    25.51000000
   H     49.09000000   -18.85000000    27.19000000
   H     51.93000000   -19.18000000    26.65000000
   H     50.58000000   -19.46000000    25.51000000
   N     51.65000000   -17.32000000    28.82000000
   C     52.20000000   -16.87000000    30.08000000
   C     51.18000000   -16.31000000    31.07000000
   O     51.16000000   -16.54000000    32.27000000
   C     53.03000000   -17.99000000    30.71000000
   H     52.12000000   -16.97000000    28.00000000
   H     52.86000000   -16.02000000    29.92000000
   H     53.38000000   -17.59000000    31.66000000
   H     52.47000000   -18.81000000    31.16000000
   H     53.80000000   -18.39000000    30.04000000
   N     50.27000000   -15.52000000    30.49000000
   C     49.36000000   -14.71000000    31.28000000
   C     48.37000000   -15.48000000    32.14000000
   O     47.91000000   -14.92000000    33.14000000
   C     50.11000000   -13.58000000    31.99000000
   C     51.16000000   -12.92000000    31.11000000
   O     52.37000000   -13.21000000    31.22000000
   O     50.81000000   -12.04000000    30.30000000
   H     50.35000000   -15.34000000    29.50000000
   H     48.68000000   -14.19000000    30.61000000
   H     50.59000000   -13.91000000    32.91000000
   H     49.42000000   -12.83000000    32.36000000
   N     47.88000000   -16.64000000    31.72000000
   C     46.95000000   -17.52000000    32.41000000
   C     45.52000000   -17.00000000    32.37000000
   O     45.07000000   -16.42000000    31.39000000
   H     48.26000000   -16.95000000    30.84000000
   H     47.23000000   -17.61000000    33.46000000
   H     46.88000000   -18.48000000    31.91000000
   N     44.78000000   -17.27000000    33.45000000
   C     43.40000000   -16.89000000    33.64000000
   C     42.34000000   -17.49000000    32.72000000
   O     41.23000000   -17.00000000    32.56000000
   C     43.24000000   -15.43000000    34.04000000
   C     44.09000000   -15.04000000    35.24000000
   N     45.20000000   -14.33000000    35.02000000
   O     43.69000000   -15.29000000    36.38000000
   H     45.20000000   -17.92000000    34.09000000
   H     43.18000000   -17.34000000    34.61000000
   H     42.19000000   -15.26000000    34.27000000
   H     43.46000000   -14.79000000    33.18000000
   H     45.61000000   -14.05000000    34.14000000
   H     45.84000000   -14.20000000    35.78000000
   N     42.67000000   -18.59000000    32.04000000
   C     41.89000000   -19.18000000    30.98000000
   C     42.24000000   -18.68000000    29.58000000
   O     41.85000000   -19.21000000    28.54000000
   H     43.53000000   -19.09000000    32.21000000
   H     40.81000000   -19.03000000    31.04000000
   H     42.03000000   -20.26000000    31.07000000
   N     42.97000000   -17.57000000    29.49000000
   C     43.58000000   -17.18000000    28.24000000
   C     43.17000000   -15.75000000    27.90000000
   O     42.76000000   -14.99000000    28.78000000
   C     45.09000000   -17.23000000    28.38000000
   C     45.58000000   -18.59000000    28.86000000
   O     45.82000000   -17.03000000    27.18000000
   H     43.26000000   -17.12000000    30.35000000
   H     43.27000000   -17.88000000    27.46000000
   H     45.34000000   -16.44000000    29.09000000
   H     46.27000000   -16.19000000    27.32000000
   H     45.13000000   -19.41000000    28.30000000
   H     46.65000000   -18.69000000    28.70000000
   H     45.38000000   -18.65000000    29.93000000
   N     43.35000000   -15.41000000    26.62000000
   C     43.30000000   -14.02000000    26.20000000
   C     44.32000000   -13.16000000    26.93000000
   O     45.33000000   -13.64000000    27.44000000
   C     43.33000000   -13.81000000    24.69000000
   C     44.43000000   -14.60000000    23.98000000
   C     41.89000000   -13.89000000    24.19000000
   C     44.60000000   -14.42000000    22.48000000
   H     43.43000000   -16.17000000    25.97000000
   H     42.33000000   -13.68000000    26.55000000
   H     43.64000000   -12.78000000    24.49000000
   H     44.32000000   -15.66000000    24.24000000
   H     45.39000000   -14.47000000    24.47000000
   H     41.19000000   -13.12000000    24.51000000
   H     41.88000000   -13.80000000    23.10000000
   H     41.47000000   -14.85000000    24.49000000
   H     45.24000000   -13.56000000    22.27000000
   H     44.88000000   -15.37000000    22.03000000
   H     43.63000000   -14.27000000    22.00000000
   N     44.09000000   -11.85000000    27.05000000
   C     44.89000000   -10.92000000    27.82000000
   C     44.30000000   -10.69000000    29.21000000
   O     44.87000000    -9.94000000    29.99000000
   C     45.26000000    -9.63000000    27.10000000
   C     46.58000000    -9.01000000    27.53000000
   O     47.24000000    -9.38000000    28.53000000
   O     47.02000000    -8.10000000    26.79000000
   H     43.38000000   -11.46000000    26.45000000
   H     45.85000000   -11.37000000    28.07000000
   H     44.45000000    -8.92000000    27.17000000
   H     45.32000000   -10.00000000    26.07000000
   N     43.13000000   -11.25000000    29.51000000
   C     42.45000000   -11.13000000    30.79000000
   C     41.07000000   -10.48000000    30.69000000
   O     40.89000000    -9.69000000    31.61000000
   C     42.38000000   -12.48000000    31.51000000
   C     41.65000000   -12.57000000    32.82000000
   C     40.31000000   -12.99000000    32.80000000
   C     42.25000000   -12.21000000    34.03000000
   C     39.51000000   -13.04000000    33.94000000
   C     41.45000000   -12.25000000    35.18000000
   C     40.10000000   -12.60000000    35.13000000
   H     42.78000000   -11.99000000    28.93000000
   H     43.05000000   -10.51000000    31.44000000
   H     43.42000000   -12.78000000    31.59000000
   H     42.05000000   -13.25000000    30.81000000
   H     39.86000000   -13.30000000    31.86000000
   H     43.29000000   -11.94000000    34.12000000
   H     38.44000000   -13.23000000    33.89000000
   H     41.88000000   -11.93000000    36.12000000
   H     39.43000000   -12.46000000    35.97000000
   N     40.13000000   -10.74000000    29.78000000
   C     40.20000000   -11.62000000    28.63000000
   C     40.46000000   -10.88000000    27.33000000
   O     40.30000000   -11.43000000    26.25000000
   C     38.85000000   -12.31000000    28.75000000
   C     37.86000000   -11.19000000    29.06000000
   C     38.74000000   -10.41000000    30.03000000
   H     41.01000000   -12.35000000    28.72000000
   H     38.59000000   -12.88000000    27.86000000
   H     38.83000000   -13.01000000    29.60000000
   H     37.72000000   -10.57000000    28.18000000
   H     36.91000000   -11.41000000    29.55000000
   H     38.57000000    -9.35000000    29.90000000
   H     38.57000000   -10.69000000    31.07000000
   N     40.80000000    -9.59000000    27.42000000
   C     40.76000000    -8.60000000    26.36000000
   C     41.46000000    -9.08000000    25.10000000
   O     42.61000000    -9.52000000    25.08000000
   C     41.29000000    -7.27000000    26.89000000
   C     41.10000000    -6.02000000    26.03000000
   C     41.85000000    -4.79000000    26.51000000
   O     43.10000000    -4.87000000    26.48000000
   O     41.25000000    -3.84000000    27.06000000
   H     40.97000000    -9.27000000    28.36000000
   H     39.72000000    -8.32000000    26.16000000
   H     42.33000000    -7.52000000    27.12000000
   H     40.84000000    -7.02000000    27.85000000
   H     40.04000000    -5.77000000    26.02000000
   H     41.41000000    -6.27000000    25.02000000
   N     40.85000000    -8.88000000    23.93000000
   C     41.42000000    -9.25000000    22.65000000
   H     42.43600000    -9.61700000    22.79800000
   H     40.81400000   -10.03300000    22.19500000
   H     41.44100000    -8.37900000    21.99500000
   H     39.91000000    -8.51000000    23.96000000
  Ca     47.05000000    -9.22300000    31.19000000
   O     45.88000000   -11.59300000    32.12000000
   H     46.08000000   -12.23300000    31.44000000
   H     46.54000000   -11.73300000    32.79000000
   O     48.34000000   -11.42300000    30.24000000
   H     49.28000000   -11.61300000    30.18000000
   H     47.95000000   -11.92300000    29.52000000
   O     48.25000000    -8.76300000    33.68000000
   H     48.98000000    -8.89300000    34.28000000
   H     47.70000000    -8.09300000    34.10000000
   O     46.45000000    -6.62300000    31.08000000
   H     47.07000000    -6.15300000    30.53000000
   H     45.85000000    -5.95300000    31.39000000
   O     49.28000000    -8.23300000    30.48000000
   H     49.29000000    -8.18300000    29.53000000
   H     50.13000000    -7.87300000    30.75000000
   O     45.29000000    -8.51300000    33.18000000
   H     45.02000000    -7.62300000    33.41000000
   H     44.86000000    -9.06300000    33.84000000

Ca 1.00



