%chk=loop2.cluster16.chk
%nprocshared=20
%mem=10GB
%nosave
#b3lyp/svp scf=(tight,noincore,xqc) Test 
#IOP(5/87=12) Density=Current Pop=(MK,readradii) iop(6/33=2) iop(6/42=6)

loop2.cluster16 

   -2  1 
   C     59.14000000    52.30000000    16.44000000
   C     60.23000000    52.17000000    15.38000000
   O     61.19000000    52.94000000    15.46000000
   H     58.22500000    51.83100000    16.07900000
   H     59.46300000    51.80700000    17.35700000
   H     58.95200000    53.35500000    16.64100000
   N     59.94000000    51.40000000    14.33000000
   C     60.94000000    50.91000000    13.40000000
   C     61.27000000    51.92000000    12.31000000
   O     60.31000000    52.52000000    11.81000000
   C     60.33000000    49.68000000    12.72000000
   C     61.36000000    48.82000000    11.99000000
   O     62.59000000    49.05000000    12.01000000
   O     60.92000000    47.81000000    11.41000000
   H     59.07000000    50.89000000    14.32000000
   H     61.83000000    50.60000000    13.94000000
   H     59.42000000    49.92000000    12.18000000
   H     60.19000000    49.06000000    13.61000000
   N     62.54000000    52.07000000    11.95000000
   C     62.88000000    52.83000000    10.76000000
   C     63.61000000    52.04000000     9.68000000
   O     64.10000000    52.65000000     8.74000000
   C     63.78000000    53.94000000    11.28000000
   H     63.27000000    51.61000000    12.48000000
   H     62.03000000    53.31000000    10.29000000
   H     64.74000000    53.55000000    11.62000000
   H     63.93000000    54.73000000    10.54000000
   H     63.26000000    54.35000000    12.15000000
   N     63.72000000    50.71000000     9.76000000
   C     64.58000000    50.00000000     8.84000000
   C     64.02000000    48.69000000     8.29000000
   O     64.53000000    48.28000000     7.26000000
   C     65.89000000    49.61000000     9.51000000
   C     65.73000000    49.00000000    10.90000000
   O     65.11000000    47.92000000    10.96000000
   O     66.29000000    49.49000000    11.91000000
   H     63.29000000    50.20000000    10.52000000
   H     64.84000000    50.62000000     7.98000000
   H     66.40000000    50.57000000     9.60000000
   H     66.52000000    48.85000000     9.04000000
   N     63.07000000    48.00000000     8.94000000
   C     62.41000000    46.78000000     8.53000000
   C     63.14000000    45.51000000     8.95000000
   O     62.85000000    44.45000000     8.40000000
   H     62.67000000    48.42000000     9.76000000
   H     62.36000000    46.85000000     7.44000000
   H     61.44000000    46.82000000     9.00000000
   N     64.14000000    45.63000000     9.84000000
   C     65.05000000    44.54000000    10.14000000
   C     64.60000000    43.47000000    11.12000000
   O     65.25000000    42.45000000    11.30000000
   C     66.36000000    45.08000000    10.70000000
   C     66.41000000    45.84000000    12.02000000
   N     67.47000000    46.61000000    12.24000000
   O     65.52000000    45.82000000    12.87000000
   H     64.25000000    46.50000000    10.33000000
   H     65.19000000    44.01000000     9.20000000
   H     66.77000000    45.79000000     9.98000000
   H     67.22000000    44.41000000    10.75000000
   H     68.18000000    46.63000000    11.52000000
   H     67.62000000    47.01000000    13.16000000
   N     63.46000000    43.66000000    11.80000000
   C     62.79000000    42.90000000    12.83000000
   C     63.36000000    42.86000000    14.24000000
   O     62.97000000    42.02000000    15.05000000
   H     63.00000000    44.50000000    11.48000000
   H     62.77000000    41.86000000    12.50000000
   H     61.73000000    43.16000000    12.80000000
   N     64.23000000    43.82000000    14.53000000
   C     64.72000000    44.08000000    15.87000000
   C     64.51000000    45.52000000    16.31000000
   O     64.56000000    46.50000000    15.57000000
   C     66.21000000    43.81000000    16.08000000
   C     66.62000000    42.34000000    16.24000000
   O     67.01000000    44.36000000    15.06000000
   H     64.35000000    44.50000000    13.79000000
   H     64.12000000    43.40000000    16.48000000
   H     66.45000000    44.30000000    17.02000000
   H     67.17000000    45.28000000    15.28000000
   H     67.68000000    42.30000000    15.98000000
   H     66.47000000    42.05000000    17.28000000
   H     66.03000000    41.72000000    15.56000000
   N     64.61000000    45.74000000    17.62000000
   C     64.82000000    47.10000000    18.09000000
   C     66.30000000    47.40000000    18.27000000
   O     67.03000000    46.56000000    18.80000000
   C     63.98000000    47.37000000    19.32000000
   C     62.63000000    47.97000000    18.91000000
   C     64.67000000    48.27000000    20.35000000
   C     61.59000000    47.96000000    20.02000000
   H     64.72000000    45.03000000    18.33000000
   H     64.49000000    47.77000000    17.29000000
   H     63.77000000    46.38000000    19.71000000
   H     62.12000000    47.45000000    18.10000000
   H     62.77000000    48.99000000    18.55000000
   H     64.11000000    48.32000000    21.29000000
   H     65.61000000    47.82000000    20.68000000
   H     64.80000000    49.28000000    19.97000000
   H     61.23000000    46.93000000    20.14000000
   H     62.03000000    48.35000000    20.94000000
   H     60.74000000    48.59000000    19.76000000
   N     66.86000000    48.42000000    17.61000000
   C     68.24000000    48.85000000    17.55000000
   C     68.60000000    49.96000000    18.53000000
   O     67.73000000    50.69000000    19.01000000
   C     68.58000000    49.24000000    16.12000000
   C     68.18000000    48.25000000    15.03000000
   O     66.98000000    48.03000000    14.79000000
   O     69.11000000    47.84000000    14.29000000
   H     66.26000000    49.14000000    17.22000000
   H     68.84000000    47.96000000    17.77000000
   H     69.63000000    49.50000000    16.06000000
   H     68.02000000    50.13000000    15.84000000
   N     69.88000000    50.21000000    18.81000000
   C     70.28000000    51.13000000    19.85000000
   C     70.08000000    52.60000000    19.51000000
   O     69.41000000    53.26000000    20.30000000
   C     71.68000000    50.68000000    20.28000000
   C     72.27000000    51.57000000    21.35000000
   C     73.42000000    52.31000000    21.09000000
   C     71.55000000    51.72000000    22.55000000
   C     73.89000000    53.17000000    22.08000000
   C     72.04000000    52.61000000    23.51000000
   C     73.22000000    53.33000000    23.30000000
   H     70.58000000    49.62000000    18.39000000
   H     69.68000000    50.97000000    20.75000000
   H     72.36000000    50.74000000    19.43000000
   H     71.70000000    49.60000000    20.46000000
   H     74.04000000    52.22000000    20.21000000
   H     70.66000000    51.17000000    22.79000000
   H     74.82000000    53.72000000    21.98000000
   H     71.61000000    52.66000000    24.50000000
   H     73.68000000    53.92000000    24.08000000
   N     70.33000000    53.05000000    18.28000000
   C     69.87000000    54.36000000    17.86000000
   C     68.36000000    54.47000000    17.73000000
   O     67.84000000    55.58000000    17.77000000
   C     70.55000000    54.58000000    16.52000000
   C     71.78000000    53.68000000    16.51000000
   C     71.54000000    52.64000000    17.60000000
   H     70.32000000    55.18000000    18.43000000
   H     69.92000000    54.29000000    15.67000000
   H     70.81000000    55.64000000    16.49000000
   H     71.94000000    53.22000000    15.53000000
   H     72.64000000    54.30000000    16.77000000
   H     71.37000000    51.66000000    17.17000000
   H     72.38000000    52.64000000    18.30000000
   N     67.64000000    53.36000000    17.49000000
   C     66.21000000    53.33000000    17.28000000
   C     65.43000000    53.50000000    18.58000000
   O     64.33000000    54.03000000    18.64000000
   C     65.87000000    52.01000000    16.59000000
   C     64.42000000    51.98000000    16.12000000
   C     64.11000000    50.77000000    15.24000000
   O     64.15000000    50.98000000    14.01000000
   O     64.13000000    49.61000000    15.69000000
   H     68.13000000    52.49000000    17.33000000
   H     66.06000000    54.16000000    16.59000000
   H     66.10000000    51.21000000    17.29000000
   H     66.56000000    51.82000000    15.77000000
   H     64.20000000    52.86000000    15.51000000
   H     63.73000000    51.94000000    16.96000000
   N     66.20000000    53.30000000    19.65000000
   C     65.84000000    53.61000000    21.02000000
   H     64.80500000    53.31800000    21.19800000
   H     66.49300000    53.06400000    21.70000000
   H     65.95000000    54.68100000    21.19200000
   H     67.17000000    53.05000000    19.51000000
  Ca     64.62000000    48.25000000    13.52000000
   O     62.13000000    48.03000000    15.08000000
   H     62.50000000    48.73000000    15.61000000
   H     61.19000000    48.04000000    15.30000000
   O     62.47000000    46.24000000    13.17000000
   H     61.65000000    46.41000000    12.70000000
   H     62.27000000    46.47000000    14.08000000

Ca 1.00



