%chk=loop4.cluster112.chk
%nprocshared=20
%mem=10GB
%nosave
#b3lyp/svp scf=(tight,noincore,xqc) Test 
#IOP(5/87=12) Density=Current Pop=(MK,readradii) iop(6/33=2) iop(6/42=6)

loop4.cluster112 

   -3  1 
   C    104.28000000    22.46000000    59.40000000
   C    105.67000000    23.06000000    59.56000000
   O    105.85000000    24.15000000    59.03000000
   H    103.59200000    23.22800000    59.04500000
   H    104.31700000    21.64400000    58.67800000
   H    103.93500000    22.08000000    60.36200000
   N    106.65000000    22.31000000    60.08000000
   C    108.07000000    22.56000000    59.98000000
   C    108.45000000    23.90000000    60.61000000
   O    109.57000000    24.35000000    60.37000000
   C    108.60000000    22.38000000    58.56000000
   C    108.71000000    20.92000000    58.16000000
   O    108.18000000    20.51000000    57.11000000
   O    109.28000000    20.16000000    58.98000000
   H    106.27000000    21.49000000    60.54000000
   H    108.60000000    21.82000000    60.58000000
   H    109.52000000    22.93000000    58.38000000
   H    107.92000000    22.88000000    57.87000000
   N    107.60000000    24.56000000    61.40000000
   C    107.98000000    25.70000000    62.22000000
   C    108.61000000    25.13000000    63.48000000
   O    108.02000000    24.28000000    64.13000000
   C    106.73000000    26.56000000    62.42000000
   C    106.34000000    27.28000000    61.14000000
   C    107.00000000    27.52000000    63.58000000
   C    105.02000000    28.03000000    61.26000000
   H    106.70000000    24.17000000    61.63000000
   H    108.69000000    26.35000000    61.72000000
   H    105.84000000    26.01000000    62.72000000
   H    106.09000000    26.60000000    60.32000000
   H    107.12000000    27.99000000    60.86000000
   H    107.30000000    26.92000000    64.44000000
   H    107.84000000    28.16000000    63.30000000
   H    106.12000000    28.10000000    63.82000000
   H    104.58000000    28.51000000    60.38000000
   H    104.39000000    27.29000000    61.75000000
   H    105.17000000    28.88000000    61.92000000
   N    109.75000000    25.60000000    64.01000000
   C    110.54000000    26.61000000    63.33000000
   C    111.44000000    26.02000000    62.26000000
   O    111.57000000    26.58000000    61.17000000
   C    111.47000000    27.23000000    64.37000000
   C    110.69000000    27.75000000    65.57000000
   O    110.86000000    27.15000000    66.64000000
   O    109.93000000    28.74000000    65.42000000
   H    110.06000000    25.28000000    64.91000000
   H    109.93000000    27.48000000    63.06000000
   H    112.03000000    28.06000000    63.94000000
   H    112.26000000    26.50000000    64.57000000
   N    111.97000000    24.83000000    62.55000000
   C    112.55000000    24.01000000    61.50000000
   C    113.96000000    24.43000000    61.14000000
   O    114.83000000    24.68000000    61.97000000
   H    111.84000000    24.47000000    63.48000000
   H    111.93000000    24.06000000    60.60000000
   H    112.51000000    22.97000000    61.82000000
   N    114.18000000    24.58000000    59.83000000
   C    115.44000000    25.10000000    59.34000000
   C    115.31000000    26.29000000    58.41000000
   O    116.28000000    26.94000000    58.01000000
   C    116.16000000    24.00000000    58.57000000
   C    115.45000000    23.33000000    57.41000000
   O    116.05000000    22.49000000    56.71000000
   O    114.24000000    23.63000000    57.22000000
   H    113.60000000    24.11000000    59.15000000
   H    116.15000000    25.35000000    60.14000000
   H    116.31000000    23.26000000    59.36000000
   H    117.14000000    24.37000000    58.29000000
   N    114.05000000    26.67000000    58.15000000
   C    113.63000000    27.74000000    57.27000000
   C    113.51000000    27.29000000    55.83000000
   O    113.25000000    28.17000000    55.00000000
   H    113.35000000    26.14000000    58.64000000
   H    114.38000000    28.52000000    57.39000000
   H    112.67000000    28.17000000    57.57000000
   N    113.77000000    26.04000000    55.45000000
   C    113.82000000    25.61000000    54.07000000
   C    112.71000000    26.06000000    53.13000000
   O    112.99000000    26.64000000    52.08000000
   C    115.23000000    25.78000000    53.50000000
   C    116.20000000    24.98000000    54.37000000
   C    117.60000000    25.07000000    53.78000000
   N    117.87000000    24.56000000    52.57000000
   O    118.50000000    25.62000000    54.40000000
   H    113.96000000    25.41000000    56.22000000
   H    113.71000000    24.52000000    54.10000000
   H    115.56000000    26.82000000    53.44000000
   H    115.24000000    25.30000000    52.52000000
   H    115.83000000    23.96000000    54.41000000
   H    116.30000000    25.44000000    55.35000000
   H    117.19000000    24.09000000    51.99000000
   H    118.83000000    24.48000000    52.29000000
   N    111.44000000    25.82000000    53.46000000
   C    110.34000000    26.11000000    52.56000000
   C    110.23000000    24.97000000    51.55000000
   O    110.40000000    23.82000000    51.95000000
   C    108.97000000    26.44000000    53.16000000
   C    108.19000000    25.28000000    53.74000000
   C    109.08000000    27.57000000    54.19000000
   H    111.27000000    25.17000000    54.21000000
   H    110.51000000    27.04000000    52.02000000
   H    108.38000000    26.86000000    52.35000000
   H    107.29000000    25.65000000    54.23000000
   H    107.82000000    24.61000000    52.96000000
   H    108.78000000    24.71000000    54.46000000
   H    108.07000000    27.79000000    54.52000000
   H    109.71000000    27.29000000    55.04000000
   H    109.49000000    28.43000000    53.66000000
   N    109.94000000    25.27000000    50.28000000
   C    109.44000000    24.28000000    49.36000000
   C    107.97000000    23.93000000    49.60000000
   O    107.22000000    24.81000000    49.99000000
   C    109.75000000    24.73000000    47.93000000
   C    109.91000000    23.57000000    46.96000000
   N    110.52000000    23.87000000    45.81000000
   O    109.59000000    22.40000000    47.19000000
   H    109.80000000    26.22000000    49.99000000
   H    109.93000000    23.33000000    49.57000000
   H    110.76000000    25.13000000    47.90000000
   H    109.08000000    25.54000000    47.66000000
   H    110.82000000    24.81000000    45.61000000
   H    110.87000000    23.04000000    45.34000000
   N    107.61000000    22.70000000    49.22000000
   C    106.37000000    21.97000000    49.41000000
   C    106.56000000    20.46000000    49.47000000
   O    107.63000000    20.01000000    49.06000000
   C    105.31000000    22.30000000    48.37000000
   C    105.62000000    21.95000000    46.93000000
   C    105.01000000    20.85000000    46.31000000
   C    106.52000000    22.71000000    46.18000000
   C    105.35000000    20.44000000    45.01000000
   C    106.77000000    22.43000000    44.83000000
   C    106.17000000    21.30000000    44.25000000
   O    106.35000000    20.91000000    42.96000000
   H    108.30000000    22.23000000    48.65000000
   H    106.05000000    22.29000000    50.41000000
   H    105.03000000    23.36000000    48.35000000
   H    104.41000000    21.73000000    48.60000000
   H    104.25000000    20.24000000    46.78000000
   H    106.95000000    23.61000000    46.60000000
   H    104.84000000    19.61000000    44.54000000
   H    107.40000000    22.98000000    44.14000000
   H    106.91000000    21.49000000    42.43000000
   N    105.65000000    19.71000000    50.09000000
   C    105.75000000    18.27000000    50.18000000
   C    104.63000000    17.61000000    49.38000000
   O    104.90000000    16.97000000    48.37000000
   C    105.91000000    17.83000000    51.63000000
   C    107.32000000    17.78000000    52.20000000
   C    107.34000000    18.00000000    53.71000000
   O    107.63000000    19.09000000    54.24000000
   O    106.94000000    17.10000000    54.49000000
   H    104.90000000    20.18000000    50.58000000
   H    106.54000000    17.78000000    49.61000000
   H    105.52000000    16.82000000    51.71000000
   H    105.32000000    18.53000000    52.22000000
   H    107.89000000    18.61000000    51.77000000
   H    107.84000000    16.86000000    51.94000000
   N    103.36000000    17.70000000    49.76000000
   C    102.76000000    18.44000000    50.85000000
   C    101.59000000    19.38000000    50.65000000
   O    100.90000000    19.24000000    49.64000000
   C    102.43000000    17.45000000    51.97000000
   C    101.34000000    16.41000000    51.74000000
   C    102.02000000    15.15000000    51.21000000
   O    102.49000000    14.34000000    52.03000000
   O    102.11000000    14.92000000    49.98000000
   H    102.78000000    17.22000000    49.07000000
   H    103.54000000    19.04000000    51.32000000
   H    102.18000000    18.05000000    52.85000000
   H    103.38000000    17.03000000    52.29000000
   H    100.55000000    16.77000000    51.09000000
   H    100.87000000    16.11000000    52.68000000
   N    101.41000000    20.41000000    51.48000000
   C    100.33000000    21.37000000    51.54000000
   H     99.46500000    20.91300000    52.02000000
   H    100.64700000    22.23900000    52.11600000
   H    100.06300000    21.68100000    50.53000000
   H    102.16000000    20.49000000    52.16000000
  Ca    106.60500000    18.54000000    56.60000000
   O    105.22600000    20.48000000    55.40000000
   H    104.27600000    20.41000000    55.30000000
   H    105.42600000    21.38000000    55.15000000
   O    109.50600000    17.70000000    56.44000000
   H    109.84500000    17.38000000    55.60000000
   H    110.07600000    18.43000000    56.67000000
   O    107.27600000    16.19000000    57.45000000
   H    106.52600000    15.60000000    57.54000000
   H    107.94600000    15.66000000    57.02000000
   O    107.32600000    18.37000000    59.11000000
   H    108.15600000    18.82000000    59.21000000
   H    107.47600000    17.50000000    59.50000000

Ca 1.00



