%chk=loop1.cluster145.chk
%nprocshared=20
%mem=10GB
%nosave
#b3lyp/svp scf=(tight,noincore,xqc) Test 
#IOP(5/87=12) Density=Current Pop=(MK,readradii) iop(6/33=2) iop(6/42=6)

loop1.cluster145 

   0  1 
   C     49.85000000    39.39000000     6.51000000
   C     50.15000000    38.75000000     5.17000000
   O     51.05000000    39.20000000     4.47000000
   H     48.81300000    39.19400000     6.78100000
   H     50.50900000    38.97000000     7.27000000
   H     50.01100000    40.46600000     6.44400000
   N     49.48000000    37.64000000     4.83000000
   C     49.74000000    36.77000000     3.70000000
   C     49.39000000    37.33000000     2.34000000
   O     48.27000000    37.68000000     1.96000000
   C     48.95000000    35.49000000     3.95000000
   C     47.46000000    35.63000000     4.21000000
   O     46.66000000    35.51000000     3.25000000
   O     47.04000000    35.73000000     5.38000000
   H     48.82000000    37.27000000     5.49000000
   H     50.80000000    36.52000000     3.63000000
   H     49.35000000    34.99000000     4.83000000
   H     49.16000000    34.78000000     3.14000000
   N     50.39000000    37.40000000     1.45000000
   C     50.29000000    37.95000000     0.11000000
   C     50.85000000    37.26000000    -1.12000000
   O     50.51000000    37.60000000    -2.25000000
   C     50.70000000    39.42000000     0.12000000
   C     49.74000000    40.36000000     0.84000000
   C     48.43000000    40.62000000     0.10000000
   C     47.32000000    41.05000000     1.06000000
   N     47.10000000    40.10000000     2.16000000
   H     51.35000000    37.34000000     1.75000000
   H     49.22000000    38.01000000    -0.13000000
   H     50.90000000    39.85000000    -0.86000000
   H     51.71000000    39.47000000     0.54000000
   H     50.24000000    41.32000000     0.94000000
   H     49.60000000    39.93000000     1.83000000
   H     48.06000000    39.75000000    -0.44000000
   H     48.65000000    41.36000000    -0.66000000
   H     46.50000000    41.04000000     0.34000000
   H     47.40000000    42.09000000     1.39000000
   H     47.59000000    40.45000000     2.97000000
   H     46.12000000    40.15000000     2.38000000
   H     47.38000000    39.13000000     2.10000000
   N     51.70000000    36.23000000    -1.14000000
   C     52.28000000    35.31000000    -0.17000000
   C     51.19000000    34.63000000     0.64000000
   O     51.37000000    34.35000000     1.82000000
   C     53.56000000    35.73000000     0.55000000
   C     53.79000000    37.24000000     0.59000000
   O     54.65000000    37.78000000    -0.14000000
   O     53.25000000    37.97000000     1.44000000
   H     51.86000000    35.97000000    -2.10000000
   H     52.64000000    34.53000000    -0.84000000
   H     54.43000000    35.24000000     0.10000000
   H     53.55000000    35.26000000     1.53000000
   N     50.04000000    34.23000000     0.10000000
   C     49.68000000    33.77000000    -1.22000000
   C     48.90000000    32.46000000    -1.22000000
   O     47.91000000    32.38000000    -1.96000000
   H     49.36000000    33.95000000     0.80000000
   H     50.61000000    33.43000000    -1.69000000
   H     49.16000000    34.48000000    -1.85000000
   N     49.10000000    31.49000000    -0.34000000
   C     50.32000000    31.19000000     0.38000000
   C     50.04000000    30.92000000     1.85000000
   O     49.44000000    29.88000000     2.11000000
   C     51.02000000    30.05000000    -0.36000000
   C     52.37000000    29.88000000     0.32000000
   O     53.19000000    30.80000000     0.14000000
   O     52.48000000    28.87000000     1.05000000
   H     48.31000000    30.85000000    -0.31000000
   H     51.04000000    32.01000000     0.38000000
   H     51.28000000    30.40000000    -1.36000000
   H     50.47000000    29.11000000    -0.33000000
   N     50.40000000    31.85000000     2.74000000
   C     49.89000000    31.89000000     4.10000000
   C     50.76000000    32.53000000     5.16000000
   O     50.48000000    32.34000000     6.34000000
   H     50.91000000    32.69000000     2.52000000
   H     49.58000000    30.88000000     4.35000000
   H     48.98000000    32.50000000     4.08000000
   N     51.76000000    33.34000000     4.80000000
   C     52.76000000    33.89000000     5.71000000
   C     53.27000000    35.27000000     5.30000000
   O     53.12000000    35.56000000     4.12000000
   C     53.93000000    32.94000000     5.92000000
   C     53.68000000    31.47000000     6.28000000
   O     54.67000000    33.45000000     7.01000000
   H     51.80000000    33.71000000     3.86000000
   H     52.38000000    33.93000000     6.73000000
   H     54.55000000    33.02000000     5.03000000
   H     55.57000000    33.22000000     6.76000000
   H     53.04000000    31.43000000     7.16000000
   H     53.13000000    31.01000000     5.46000000
   H     54.61000000    30.96000000     6.52000000
   N     53.77000000    36.08000000     6.23000000
   C     54.49000000    37.34000000     6.12000000
   C     55.40000000    37.37000000     4.90000000
   O     55.51000000    38.36000000     4.17000000
   C     55.26000000    37.61000000     7.41000000
   C     56.06000000    38.88000000     7.67000000
   C     56.02000000    36.37000000     7.88000000
   C     55.29000000    40.18000000     7.43000000
   H     53.69000000    35.70000000     7.16000000
   H     53.75000000    38.10000000     5.89000000
   H     54.47000000    37.59000000     8.15000000
   H     56.92000000    38.85000000     7.00000000
   H     56.53000000    38.90000000     8.66000000
   H     55.38000000    35.52000000     8.10000000
   H     56.80000000    36.10000000     7.16000000
   H     56.52000000    36.54000000     8.83000000
   H     54.32000000    40.18000000     7.94000000
   H     55.78000000    41.00000000     7.94000000
   H     55.14000000    40.42000000     6.38000000
   N     56.10000000    36.28000000     4.57000000
   C     57.24000000    36.11000000     3.71000000
   C     58.50000000    36.95000000     3.89000000
   O     59.58000000    36.40000000     3.72000000
   C     56.79000000    36.11000000     2.25000000
   C     57.61000000    35.18000000     1.36000000
   O     56.83000000    37.43000000     1.75000000
   H     55.81000000    35.47000000     5.10000000
   H     57.56000000    35.10000000     3.97000000
   H     55.80000000    35.65000000     2.19000000
   H     57.01000000    37.34000000     0.81000000
   H     57.91000000    34.31000000     1.94000000
   H     56.97000000    34.86000000     0.53000000
   H     58.52000000    35.66000000     1.01000000
   N     58.39000000    38.10000000     4.57000000
   C     59.50000000    38.63000000     5.34000000
   C     60.72000000    39.08000000     4.54000000
   O     60.93000000    38.65000000     3.41000000
   C     59.77000000    37.77000000     6.57000000
   C     60.03000000    38.51000000     7.88000000
   O     60.80000000    36.86000000     6.25000000
   H     57.48000000    38.53000000     4.61000000
   H     59.10000000    39.56000000     5.74000000
   H     58.80000000    37.30000000     6.77000000
   H     60.42000000    36.30000000     5.57000000
   H     59.13000000    39.07000000     8.12000000
   H     60.19000000    37.72000000     8.61000000
   H     60.79000000    39.27000000     7.76000000
   N     61.56000000    39.97000000     5.08000000
   C     62.79000000    40.50000000     4.51000000
   C     62.93000000    42.00000000     4.32000000
   O     64.05000000    42.37000000     3.98000000
   C     63.94000000    40.00000000     5.38000000
   C     63.98000000    38.59000000     5.98000000
   C     63.95000000    37.53000000     4.88000000
   C     64.16000000    36.14000000     5.48000000
   N     63.41000000    35.21000000     4.62000000
   H     61.20000000    40.48000000     5.87000000
   H     62.90000000    40.06000000     3.52000000
   H     63.94000000    40.68000000     6.23000000
   H     64.85000000    40.23000000     4.83000000
   H     63.15000000    38.37000000     6.65000000
   H     64.92000000    38.48000000     6.51000000
   H     64.82000000    37.71000000     4.25000000
   H     62.98000000    37.65000000     4.40000000
   H     63.68000000    36.10000000     6.46000000
   H     65.22000000    35.95000000     5.61000000
   H     62.53000000    35.63000000     4.33000000
   H     63.93000000    35.01000000     3.78000000
   H     63.20000000    34.47000000     5.27000000
   N     61.99000000    42.92000000     4.54000000
   C     60.62000000    42.84000000     4.98000000
   C     60.44000000    42.41000000     6.43000000
   O     59.58000000    41.58000000     6.74000000
   C     59.65000000    42.43000000     3.87000000
   C     58.19000000    42.83000000     4.04000000
   C     57.31000000    42.18000000     2.98000000
   O     56.99000000    40.98000000     3.12000000
   O     56.89000000    42.86000000     2.02000000
   H     62.27000000    43.87000000     4.33000000
   H     60.39000000    43.90000000     5.08000000
   H     59.78000000    41.36000000     3.72000000
   H     60.05000000    42.85000000     2.96000000
   H     58.05000000    43.90000000     3.87000000
   H     57.82000000    42.65000000     5.05000000
   N     61.30000000    42.88000000     7.33000000
   C     61.31000000    42.62000000     8.75000000
   H     60.93000000    43.49200000     9.28100000
   H     60.67800000    41.75900000     8.96700000
   H     62.33000000    42.41400000     9.07500000
   H     62.08000000    43.46000000     7.05000000
  Ca     55.14000000    39.59000000     1.74000000
   O     52.84000000    40.44000000     3.10000000
   H     52.11000000    39.91000000     3.41000000
   H     52.71000000    41.29000000     3.53000000
   O     53.58000000    41.25000000     0.30000000
   H     52.97000000    41.99000000     0.38000000
   H     53.23000000    40.75000000    -0.44000000
   O     57.00000000    40.39000000     0.18000000
   H     57.83000000    39.93000000     0.31000000
   H     57.25000000    41.23000000    -0.22000000

Ca 1.00



