%chk=loop3.cluster96.chk
%nprocshared=20
%mem=10GB
%nosave
#b3lyp/svp scf=(tight,noincore,xqc) Test 
#IOP(5/87=12) Density=Current Pop=(MK,readradii) iop(6/33=2) iop(6/42=6)

loop3.cluster96 

   0  1 
   C     63.10000000    19.55000000     4.57000000
   C     63.56000000    19.65000000     3.12000000
   O     63.36000000    18.68000000     2.39000000
   H     62.07100000    19.19300000     4.60000000
   H     63.74200000    18.85300000     5.10800000
   H     63.15700000    20.53300000     5.03800000
   N     64.27000000    20.70000000     2.72000000
   C     64.76000000    20.88000000     1.37000000
   C     64.48000000    22.30000000     0.90000000
   O     63.97000000    23.11000000     1.68000000
   C     66.26000000    20.59000000     1.34000000
   C     67.06000000    21.33000000     2.40000000
   O     68.18000000    20.86000000     2.67000000
   O     66.73000000    22.45000000     2.84000000
   H     64.25000000    21.47000000     3.37000000
   H     64.24000000    20.20000000     0.69000000
   H     66.62000000    20.87000000     0.35000000
   H     66.29000000    19.50000000     1.45000000
   N     64.69000000    22.62000000    -0.38000000
   C     64.34000000    23.86000000    -1.05000000
   C     65.08000000    25.13000000    -0.67000000
   O     65.45000000    25.89000000    -1.57000000
   C     62.84000000    24.10000000    -1.19000000
   C     62.55000000    25.27000000    -2.13000000
   C     61.06000000    25.34000000    -2.43000000
   C     60.82000000    26.25000000    -3.63000000
   N     59.39000000    26.32000000    -3.99000000
   H     64.87000000    21.78000000    -0.91000000
   H     64.67000000    23.82000000    -2.09000000
   H     62.41000000    24.40000000    -0.23000000
   H     62.32000000    23.19000000    -1.48000000
   H     63.05000000    25.10000000    -3.08000000
   H     62.76000000    26.20000000    -1.61000000
   H     60.61000000    25.75000000    -1.53000000
   H     60.70000000    24.34000000    -2.65000000
   H     61.43000000    25.76000000    -4.38000000
   H     61.14000000    27.27000000    -3.40000000
   H     58.96000000    25.41000000    -4.14000000
   H     58.86000000    26.88000000    -3.35000000
   H     59.30000000    26.77000000    -4.88000000
   N     65.25000000    25.40000000     0.62000000
   C     65.67000000    26.64000000     1.22000000
   C     66.52000000    26.51000000     2.48000000
   O     66.25000000    25.62000000     3.28000000
   C     64.47000000    27.56000000     1.41000000
   C     64.76000000    28.94000000     1.99000000
   O     65.79000000    29.57000000     1.66000000
   O     64.10000000    29.44000000     2.92000000
   H     64.94000000    24.70000000     1.29000000
   H     66.33000000    27.16000000     0.53000000
   H     63.66000000    27.11000000     1.98000000
   H     64.09000000    27.76000000     0.40000000
   N     67.49000000    27.41000000     2.65000000
   C     68.52000000    27.34000000     3.67000000
   C     68.02000000    27.53000000     5.09000000
   O     66.85000000    27.35000000     5.43000000
   H     67.63000000    28.01000000     1.85000000
   H     69.29000000    28.09000000     3.50000000
   H     69.12000000    26.43000000     3.59000000
   N     68.94000000    28.03000000     5.92000000
   C     68.61000000    28.38000000     7.29000000
   C     68.37000000    29.88000000     7.39000000
   O     67.27000000    30.31000000     7.72000000
   C     69.76000000    27.87000000     8.16000000
   C     69.74000000    26.36000000     8.34000000
   N     70.56000000    25.90000000     9.29000000
   O     68.96000000    25.60000000     7.77000000
   H     69.91000000    27.96000000     5.64000000
   H     67.71000000    27.86000000     7.64000000
   H     69.66000000    28.32000000     9.15000000
   H     70.75000000    28.21000000     7.86000000
   H     71.25000000    26.53000000     9.66000000
   H     70.78000000    24.92000000     9.38000000
   N     69.44000000    30.56000000     6.95000000
   C     69.60000000    32.00000000     7.05000000
   C     69.65000000    32.46000000     8.50000000
   O     70.19000000    31.76000000     9.35000000
   H     70.16000000    29.94000000     6.63000000
   H     68.77000000    32.47000000     6.53000000
   H     70.55000000    32.33000000     6.62000000
   N     69.21000000    33.69000000     8.76000000
   C     68.90000000    34.21000000    10.08000000
   C     68.09000000    33.22000000    10.91000000
   O     68.24000000    33.13000000    12.12000000
   C     70.20000000    34.71000000    10.70000000
   C     70.79000000    35.75000000     9.78000000
   C     71.77000000    35.35000000     8.86000000
   C     70.22000000    37.02000000     9.69000000
   C     72.25000000    36.23000000     7.89000000
   C     70.73000000    37.95000000     8.77000000
   C     71.65000000    37.50000000     7.80000000
   O     72.09000000    38.34000000     6.81000000
   H     68.82000000    34.14000000     7.95000000
   H     68.33000000    35.12000000     9.87000000
   H     70.86000000    33.85000000    10.85000000
   H     70.09000000    35.13000000    11.70000000
   H     72.14000000    34.34000000     8.79000000
   H     69.45000000    37.31000000    10.38000000
   H     73.05000000    35.95000000     7.22000000
   H     70.26000000    38.91000000     8.74000000
   H     71.74000000    39.22000000     6.70000000
   N     67.28000000    32.38000000    10.26000000
   C     66.28000000    31.51000000    10.85000000
   C     65.15000000    32.34000000    11.43000000
   O     63.97000000    32.15000000    11.11000000
   C     66.76000000    30.42000000    11.80000000
   C     67.66000000    29.50000000    10.99000000
   C     65.55000000    29.79000000    12.49000000
   C     68.35000000    28.40000000    11.79000000
   H     67.22000000    32.61000000     9.28000000
   H     65.85000000    30.99000000    10.00000000
   H     67.35000000    30.91000000    12.58000000
   H     68.42000000    30.07000000    10.46000000
   H     67.09000000    28.90000000    10.27000000
   H     65.93000000    29.20000000    13.33000000
   H     64.76000000    30.41000000    12.91000000
   H     64.99000000    29.11000000    11.86000000
   H     67.63000000    27.76000000    12.30000000
   H     68.86000000    27.79000000    11.04000000
   H     69.19000000    28.81000000    12.36000000
   N     65.50000000    33.48000000    12.02000000
   C     64.49000000    34.47000000    12.35000000
   C     63.42000000    33.96000000    13.30000000
   O     62.44000000    34.67000000    13.55000000
   C     65.23000000    35.73000000    12.80000000
   O     66.34000000    36.11000000    12.01000000
   H     66.47000000    33.72000000    12.15000000
   H     63.98000000    34.71000000    11.42000000
   H     65.65000000    35.52000000    13.78000000
   H     64.54000000    36.56000000    12.89000000
   H     66.95000000    36.68000000    12.48000000
   N     63.60000000    32.81000000    13.97000000
   C     62.73000000    32.10000000    14.88000000
   C     61.37000000    32.06000000    14.19000000
   O     60.33000000    32.17000000    14.84000000
   C     62.73000000    32.71000000    16.27000000
   H     64.54000000    32.47000000    13.83000000
   H     62.99000000    31.06000000    15.06000000
   H     62.32000000    33.72000000    16.24000000
   H     62.14000000    32.19000000    17.03000000
   H     63.74000000    32.84000000    16.68000000
   N     61.38000000    31.82000000    12.88000000
   C     60.29000000    31.94000000    11.92000000
   C     59.86000000    30.56000000    11.45000000
   O     60.60000000    29.59000000    11.59000000
   C     60.68000000    32.76000000    10.70000000
   H     62.28000000    31.84000000    12.43000000
   H     59.46000000    32.36000000    12.49000000
   H     61.04000000    33.77000000    10.91000000
   H     61.33000000    32.23000000    10.01000000
   H     59.79000000    32.96000000    10.10000000
   N     58.69000000    30.50000000    10.81000000
   C     58.07000000    29.30000000    10.28000000
   C     57.77000000    28.16000000    11.24000000
   O     57.41000000    27.09000000    10.76000000
   C     58.86000000    28.86000000     9.05000000
   C     58.59000000    29.82000000     7.89000000
   C     58.85000000    29.21000000     6.51000000
   O     58.02000000    28.44000000     5.98000000
   O     59.84000000    29.62000000     5.88000000
   H     58.17000000    31.37000000    10.75000000
   H     57.09000000    29.51000000     9.86000000
   H     58.44000000    27.92000000     8.70000000
   H     59.92000000    28.76000000     9.28000000
   H     59.18000000    30.72000000     8.04000000
   H     57.55000000    30.14000000     7.95000000
   N     57.80000000    28.37000000    12.56000000
   C     57.92000000    27.30000000    13.53000000
   H     58.58900000    27.61100000    14.33200000
   H     56.93800000    27.07300000    13.94500000
   H     58.32400000    26.41200000    13.04400000
   H     58.02000000    29.31000000    12.86000000
  Ca     62.52000000    29.48000000     5.09000000
   O     65.04000000    29.88000000     5.93000000
   H     65.76000000    30.00000000     5.31000000
   H     65.48000000    29.68000000     6.76000000
   O     63.00000000    28.28000000     7.34000000
   H     62.67000000    28.52000000     8.20000000
   H     63.66000000    27.61000000     7.51000000
   O     61.98000000    31.20000000     7.02000000
   H     62.83000000    31.52000000     7.32000000
   H     61.39000000    31.95000000     7.13000000
   O     62.98000000    32.04000000     4.01000000
   H     63.74000000    31.84000000     3.47000000
   H     62.91000000    32.99000000     3.99000000
   O     61.10000000    28.62000000     3.06000000
   H     60.71000000    29.05000000     2.30000000
   H     60.50000000    27.90000000     3.26000000
   O     63.81000000    27.09000000     4.88000000
   H     64.63000000    27.25000000     4.42000000
   H     63.68000000    26.15000000     4.82000000

Ca 1.00



