%chk=loop1.cluster7.chk
%nprocshared=20
%mem=10GB
%nosave
#b3lyp/svp scf=(tight,noincore,xqc) Test 
#IOP(5/87=12) Density=Current Pop=(MK,readradii) iop(6/33=2) iop(6/42=6)

loop1.cluster7 

   0  1 
   C     37.78000000    86.80000000   121.93000000
   C     38.03000000    86.30000000   123.35000000
   O     38.28000000    85.12000000   123.58000000
   H     37.02300000    87.58400000   121.94900000
   H     38.70600000    87.20100000   121.51700000
   H     37.43200000    85.97400000   121.30900000
   N     37.84000000    87.12000000   124.38000000
   C     38.00000000    86.84000000   125.79000000
   C     36.77000000    86.22000000   126.45000000
   O     36.71000000    86.31000000   127.67000000
   C     38.56000000    88.00000000   126.61000000
   C     37.50000000    89.10000000   126.72000000
   O     37.31000000    89.68000000   127.80000000
   O     36.81000000    89.31000000   125.70000000
   H     37.53000000    88.07000000   124.23000000
   H     38.75000000    86.05000000   125.78000000
   H     39.45000000    88.45000000   126.17000000
   H     38.76000000    87.69000000   127.64000000
   N     35.78000000    85.71000000   125.71000000
   C     34.47000000    85.41000000   126.24000000
   C     34.04000000    84.02000000   125.78000000
   O     33.46000000    83.90000000   124.71000000
   C     33.43000000    86.50000000   125.97000000
   C     33.78000000    87.82000000   126.64000000
   C     32.93000000    89.01000000   126.20000000
   C     33.39000000    90.25000000   126.94000000
   N     34.57000000    90.84000000   126.27000000
   H     35.85000000    85.86000000   124.72000000
   H     34.51000000    85.32000000   127.32000000
   H     32.54000000    86.08000000   126.44000000
   H     33.23000000    86.61000000   124.91000000
   H     34.85000000    87.97000000   126.47000000
   H     33.56000000    87.70000000   127.70000000
   H     31.92000000    88.95000000   126.60000000
   H     32.99000000    89.13000000   125.11000000
   H     33.47000000    89.94000000   127.98000000
   H     32.54000000    90.92000000   126.79000000
   H     34.32000000    91.06000000   125.32000000
   H     34.71000000    91.68000000   126.81000000
   H     35.40000000    90.26000000   126.33000000
   N     34.21000000    82.85000000   126.39000000
   C     34.68000000    82.55000000   127.73000000
   C     33.88000000    83.15000000   128.87000000
   O     33.22000000    84.17000000   128.69000000
   C     36.17000000    82.78000000   127.94000000
   C     37.12000000    82.04000000   127.00000000
   O     38.06000000    82.71000000   126.52000000
   O     36.91000000    80.83000000   126.77000000
   H     33.97000000    82.02000000   125.86000000
   H     34.42000000    81.49000000   127.78000000
   H     36.64000000    82.51000000   128.89000000
   H     36.40000000    83.84000000   127.91000000
   N     33.92000000    82.68000000   130.12000000
   C     34.67000000    81.57000000   130.68000000
   C     35.87000000    82.10000000   131.44000000
   O     35.80000000    82.98000000   132.30000000
   H     33.21000000    83.05000000   130.73000000
   H     34.93000000    80.75000000   130.01000000
   H     34.07000000    81.08000000   131.45000000
   N     37.08000000    81.57000000   131.31000000
   C     37.47000000    80.32000000   130.68000000
   C     38.93000000    80.32000000   130.22000000
   O     39.76000000    80.63000000   131.07000000
   C     37.29000000    79.13000000   131.62000000
   C     37.59000000    77.80000000   130.94000000
   O     36.87000000    77.49000000   129.97000000
   O     38.52000000    77.04000000   131.31000000
   H     37.84000000    82.06000000   131.75000000
   H     36.74000000    80.10000000   129.91000000
   H     36.26000000    78.99000000   131.94000000
   H     38.00000000    79.18000000   132.45000000
   N     39.28000000    79.77000000   129.06000000
   C     40.65000000    79.52000000   128.64000000
   C     41.23000000    80.30000000   127.47000000
   O     41.09000000    81.52000000   127.42000000
   H     38.57000000    79.45000000   128.43000000
   H     40.83000000    78.46000000   128.50000000
   H     41.35000000    79.80000000   129.42000000
   N     41.90000000    79.66000000   126.51000000
   C     42.41000000    80.30000000   125.31000000
   C     41.78000000    79.71000000   124.06000000
   O     41.56000000    78.51000000   123.89000000
   C     43.94000000    80.23000000   125.31000000
   C     44.48000000    78.82000000   125.50000000
   O     44.33000000    80.94000000   126.47000000
   H     41.89000000    78.65000000   126.49000000
   H     42.06000000    81.33000000   125.29000000
   H     44.31000000    80.77000000   124.44000000
   H     43.95000000    80.48000000   127.22000000
   H     44.07000000    78.15000000   124.75000000
   H     45.56000000    78.91000000   125.43000000
   H     44.32000000    78.44000000   126.51000000
   N     41.44000000    80.55000000   123.08000000
   C     40.63000000    80.25000000   121.92000000
   C     41.46000000    79.46000000   120.92000000
   O     42.25000000    80.13000000   120.26000000
   C     39.82000000    81.42000000   121.37000000
   C     39.12000000    80.93000000   120.10000000
   C     40.69000000    82.64000000   121.08000000
   C     37.97000000    81.80000000   119.59000000
   H     41.67000000    81.53000000   123.22000000
   H     39.90000000    79.53000000   122.31000000
   H     39.08000000    81.82000000   122.06000000
   H     38.67000000    79.96000000   120.32000000
   H     39.82000000    80.83000000   119.28000000
   H     40.13000000    83.30000000   120.42000000
   H     40.97000000    83.16000000   121.99000000
   H     41.61000000    82.44000000   120.54000000
   H     37.52000000    81.31000000   118.73000000
   H     37.22000000    81.91000000   120.37000000
   H     38.32000000    82.82000000   119.43000000
   N     41.27000000    78.16000000   120.68000000
   C     41.75000000    77.43000000   119.53000000
   C     40.67000000    76.93000000   118.57000000
   O     40.85000000    76.36000000   117.50000000
   C     42.64000000    76.32000000   120.07000000
   C     41.93000000    75.08000000   120.61000000
   O     43.68000000    76.74000000   120.93000000
   H     40.78000000    77.60000000   121.36000000
   H     42.28000000    78.13000000   118.89000000
   H     43.14000000    75.96000000   119.17000000
   H     44.11000000    77.52000000   120.58000000
   H     41.46000000    74.53000000   119.80000000
   H     42.64000000    74.37000000   121.03000000
   H     41.19000000    75.38000000   121.36000000
   N     39.41000000    77.12000000   118.98000000
   C     38.25000000    76.63000000   118.26000000
   C     38.07000000    75.13000000   118.44000000
   O     38.91000000    74.48000000   119.06000000
   C     38.11000000    77.20000000   116.85000000
   C     38.30000000    78.71000000   116.75000000
   O     36.86000000    76.97000000   116.24000000
   H     39.23000000    77.61000000   119.84000000
   H     37.39000000    76.98000000   118.83000000
   H     38.88000000    76.78000000   116.20000000
   H     36.94000000    77.42000000   115.39000000
   H     37.59000000    79.30000000   117.32000000
   H     39.33000000    78.93000000   117.01000000
   H     38.07000000    79.05000000   115.74000000
   N     36.91000000    74.68000000   117.96000000
   C     36.43000000    73.31000000   117.94000000
   C     35.57000000    72.87000000   119.12000000
   O     35.66000000    71.67000000   119.33000000
   C     35.80000000    73.03000000   116.58000000
   C     36.77000000    72.99000000   115.41000000
   C     37.67000000    71.75000000   115.41000000
   C     38.47000000    71.57000000   114.13000000
   N     39.29000000    72.73000000   113.76000000
   H     36.28000000    75.34000000   117.53000000
   H     37.32000000    72.69000000   118.02000000
   H     35.15000000    73.87000000   116.35000000
   H     35.32000000    72.05000000   116.67000000
   H     37.37000000    73.90000000   115.44000000
   H     36.16000000    72.95000000   114.51000000
   H     37.09000000    70.83000000   115.51000000
   H     38.34000000    71.85000000   116.26000000
   H     37.82000000    71.31000000   113.29000000
   H     39.05000000    70.66000000   114.28000000
   H     39.95000000    72.99000000   114.48000000
   H     39.61000000    72.73000000   112.80000000
   H     38.69000000    73.54000000   113.66000000
   N     34.77000000    73.63000000   119.88000000
   C     34.38000000    75.02000000   119.83000000
   C     33.95000000    75.55000000   118.47000000
   O     34.39000000    76.63000000   118.05000000
   C     35.42000000    75.82000000   120.61000000
   C     35.11000000    77.29000000   120.88000000
   C     35.70000000    77.71000000   122.22000000
   O     36.76000000    78.36000000   122.34000000
   O     35.06000000    77.61000000   123.30000000
   H     34.31000000    73.13000000   120.63000000
   H     33.45000000    75.13000000   120.40000000
   H     36.43000000    75.72000000   120.23000000
   H     35.54000000    75.32000000   121.57000000
   H     34.03000000    77.44000000   120.88000000
   H     35.59000000    77.92000000   120.13000000
   N     33.15000000    74.78000000   117.73000000
   C     32.68000000    75.24000000   116.44000000
   H     31.80500000    75.87500000   116.57800000
   H     33.46800000    75.81000000   115.94800000
   H     32.41200000    74.38200000   115.82300000
   H     32.89000000    73.88000000   118.08000000
  Ca     36.54000000    78.81000000   125.18000000
   O     38.81000000    80.35000000   124.91000000
   H     39.63000000    80.71000000   124.59000000
   H     38.47000000    81.03000000   125.50000000
   O     34.39000000    79.08000000   126.55000000
   H     33.99000000    78.64000000   127.30000000
   H     33.67000000    79.55000000   126.14000000
   O     36.10000000    76.16000000   125.84000000
   H     35.34000000    75.59000000   125.89000000
   H     36.69000000    75.84000000   126.52000000
   O     38.85000000    77.56000000   124.73000000
   H     39.73000000    77.88000000   124.53000000
   H     38.91000000    76.61000000   124.64000000
   O     35.19000000    80.81000000   124.02000000
   H     35.53000000    81.62000000   123.64000000
   H     34.35000000    80.67000000   123.58000000
   O     37.56000000    77.84000000   127.49000000
   H     38.33000000    77.28000000   127.41000000
   H     37.33000000    77.81000000   128.42000000

Ca 1.00



