%chk=loop2.cluster32.chk
%nprocshared=20
%mem=10GB
%nosave
#b3lyp/svp scf=(tight,noincore,xqc) Test 
#IOP(5/87=12) Density=Current Pop=(MK,readradii) iop(6/33=2) iop(6/42=6)

loop2.cluster32 

   -2  1 
   C     54.75000000    20.14000000    34.52000000
   C     54.30000000    18.87000000    33.80000000
   O     53.48000000    18.08000000    34.26000000
   H     55.65900000    20.51900000    34.05300000
   H     53.96600000    20.89400000    34.45200000
   H     54.94700000    19.91400000    35.56800000
   N     54.78000000    18.65000000    32.58000000
   C     54.65000000    17.47000000    31.74000000
   C     55.17000000    16.23000000    32.46000000
   O     54.50000000    15.20000000    32.43000000
   C     55.39000000    17.70000000    30.43000000
   C     55.19000000    16.57000000    29.43000000
   O     54.10000000    16.18000000    28.97000000
   O     56.23000000    15.96000000    29.08000000
   H     55.32000000    19.42000000    32.21000000
   H     53.61000000    17.34000000    31.47000000
   H     56.44000000    17.85000000    30.66000000
   H     54.98000000    18.64000000    30.05000000
   N     56.30000000    16.36000000    33.17000000
   C     56.80000000    15.41000000    34.14000000
   C     55.80000000    14.78000000    35.09000000
   O     56.00000000    13.70000000    35.66000000
   C     57.76000000    14.45000000    33.44000000
   H     56.75000000    17.26000000    33.23000000
   H     57.41000000    16.06000000    34.76000000
   H     57.21000000    13.69000000    32.87000000
   H     58.46000000    14.91000000    32.75000000
   H     58.33000000    13.87000000    34.17000000
   N     54.72000000    15.51000000    35.39000000
   C     53.58000000    15.08000000    36.18000000
   C     52.92000000    13.81000000    35.65000000
   O     52.33000000    13.08000000    36.44000000
   C     53.79000000    15.06000000    37.69000000
   C     54.51000000    16.27000000    38.27000000
   O     54.55000000    16.45000000    39.50000000
   O     55.01000000    17.17000000    37.56000000
   H     54.60000000    16.42000000    34.97000000
   H     52.74000000    15.75000000    36.01000000
   H     54.44000000    14.20000000    37.89000000
   H     52.90000000    14.97000000    38.30000000
   N     53.07000000    13.49000000    34.36000000
   C     52.61000000    12.27000000    33.75000000
   C     51.16000000    12.48000000    33.31000000
   O     50.93000000    13.14000000    32.30000000
   H     53.58000000    14.18000000    33.82000000
   H     52.63000000    11.45000000    34.46000000
   H     53.23000000    12.04000000    32.88000000
   N     50.23000000    11.86000000    34.03000000
   C     48.79000000    11.86000000    33.85000000
   C     48.08000000    13.21000000    33.97000000
   O     48.23000000    13.93000000    34.95000000
   C     48.22000000    10.76000000    34.73000000
   C     46.74000000    10.44000000    34.52000000
   N     46.13000000    10.00000000    35.63000000
   O     46.19000000    10.42000000    33.42000000
   H     50.50000000    11.34000000    34.85000000
   H     48.65000000    11.48000000    32.84000000
   H     48.30000000    11.05000000    35.78000000
   H     48.89000000     9.91000000    34.79000000
   H     46.69000000     9.86000000    36.46000000
   H     45.41000000     9.34000000    35.40000000
   N     47.37000000    13.57000000    32.90000000
   C     46.43000000    14.67000000    32.89000000
   C     47.14000000    15.99000000    32.60000000
   O     46.81000000    16.68000000    31.64000000
   H     47.42000000    12.91000000    32.14000000
   H     46.00000000    14.76000000    33.89000000
   H     45.61000000    14.50000000    32.19000000
   N     48.17000000    16.27000000    33.41000000
   C     48.85000000    17.54000000    33.52000000
   C     48.48000000    18.33000000    34.77000000
   O     48.16000000    17.68000000    35.77000000
   C     50.37000000    17.45000000    33.46000000
   C     50.81000000    16.67000000    32.23000000
   O     50.87000000    18.74000000    33.17000000
   H     48.25000000    15.63000000    34.19000000
   H     48.52000000    18.15000000    32.67000000
   H     50.89000000    17.06000000    34.34000000
   H     51.75000000    18.60000000    33.53000000
   H     50.47000000    15.66000000    32.46000000
   H     50.56000000    17.10000000    31.26000000
   H     51.90000000    16.57000000    32.23000000
   N     48.55000000    19.66000000    34.81000000
   C     48.25000000    20.53000000    35.92000000
   C     49.40000000    20.70000000    36.91000000
   O     50.54000000    20.57000000    36.47000000
   C     47.88000000    21.90000000    35.37000000
   C     47.18000000    22.81000000    36.38000000
   C     49.06000000    22.63000000    34.74000000
   C     46.61000000    24.01000000    35.63000000
   H     48.75000000    20.16000000    33.95000000
   H     47.35000000    20.14000000    36.40000000
   H     47.20000000    21.70000000    34.54000000
   H     47.82000000    23.27000000    37.14000000
   H     46.34000000    22.30000000    36.84000000
   H     49.55000000    21.97000000    34.03000000
   H     48.68000000    23.51000000    34.22000000
   H     49.77000000    23.03000000    35.47000000
   H     47.43000000    24.71000000    35.47000000
   H     46.12000000    23.78000000    34.68000000
   H     45.89000000    24.43000000    36.32000000
   N     49.20000000    20.87000000    38.22000000
   C     50.33000000    20.66000000    39.10000000
   C     49.91000000    19.92000000    40.36000000
   O     50.13000000    20.31000000    41.50000000
   C     50.87000000    22.05000000    39.41000000
   C     52.22000000    22.02000000    40.10000000
   O     53.07000000    21.12000000    39.90000000
   O     52.49000000    23.01000000    40.82000000
   H     48.24000000    20.86000000    38.54000000
   H     51.10000000    20.02000000    38.67000000
   H     50.16000000    22.62000000    40.02000000
   H     50.95000000    22.69000000    38.53000000
   N     49.21000000    18.80000000    40.16000000
   C     48.88000000    17.81000000    41.18000000
   C     47.95000000    18.33000000    42.27000000
   O     48.39000000    18.22000000    43.41000000
   C     48.35000000    16.50000000    40.61000000
   C     48.53000000    15.35000000    41.57000000
   C     49.78000000    14.87000000    41.96000000
   C     47.35000000    14.76000000    42.06000000
   C     49.88000000    13.91000000    42.98000000
   C     47.47000000    13.67000000    42.92000000
   C     48.72000000    13.27000000    43.42000000
   H     49.28000000    18.42000000    39.23000000
   H     49.82000000    17.64000000    41.68000000
   H     48.93000000    16.28000000    39.71000000
   H     47.31000000    16.66000000    40.33000000
   H     50.68000000    15.29000000    41.55000000
   H     46.38000000    15.15000000    41.79000000
   H     50.89000000    13.69000000    43.30000000
   H     46.55000000    13.28000000    43.34000000
   H     48.78000000    12.43000000    44.10000000
   N     46.71000000    18.71000000    41.96000000
   C     46.10000000    19.05000000    40.69000000
   C     46.33000000    20.52000000    40.34000000
   O     46.27000000    20.82000000    39.15000000
   C     44.64000000    18.67000000    40.85000000
   C     44.40000000    18.26000000    42.30000000
   C     45.69000000    18.70000000    42.99000000
   H     46.53000000    18.44000000    39.89000000
   H     43.98000000    19.45000000    40.47000000
   H     44.52000000    17.78000000    40.23000000
   H     43.50000000    18.57000000    42.82000000
   H     44.34000000    17.17000000    42.38000000
   H     45.59000000    19.60000000    43.60000000
   H     45.85000000    17.99000000    43.80000000
   N     46.38000000    21.42000000    41.33000000
   C     46.07000000    22.81000000    41.08000000
   C     47.31000000    23.69000000    41.16000000
   O     48.29000000    23.32000000    41.80000000
   C     45.03000000    23.21000000    42.13000000
   C     43.67000000    22.54000000    42.30000000
   C     42.75000000    23.24000000    43.29000000
   O     42.28000000    24.39000000    43.13000000
   O     42.49000000    22.58000000    44.32000000
   H     46.24000000    21.13000000    42.29000000
   H     45.55000000    22.95000000    40.13000000
   H     44.79000000    24.27000000    42.03000000
   H     45.55000000    23.19000000    43.09000000
   H     43.70000000    21.50000000    42.61000000
   H     43.15000000    22.62000000    41.35000000
   N     47.32000000    24.79000000    40.41000000
   C     48.48000000    25.54000000    39.96000000
   H     49.32300000    24.86100000    39.82900000
   H     48.25400000    26.02500000    39.01000000
   H     48.73500000    26.29600000    40.70300000
   H     46.51000000    25.01000000    39.84000000
  Ca     54.45000000    19.15000000    39.25000000
   O     52.18000000    17.91000000    39.60000000
   H     51.60000000    17.70000000    38.86000000
   H     51.93000000    17.27000000    40.27000000
   O     52.78000000    19.12000000    37.01000000
   H     52.68000000    18.44000000    36.35000000
   H     52.05000000    19.72000000    36.85000000
   O     54.44000000    18.53000000    41.91000000
   H     55.09000000    18.25000000    42.56000000
   H     53.67000000    17.99000000    42.09000000
   O     56.98000000    18.55000000    39.57000000
   H     57.49000000    17.96000000    39.01000000
   H     57.59000000    18.83000000    40.25000000
   O     55.69000000    21.29000000    38.23000000
   H     56.46000000    21.22000000    37.67000000
   H     55.93000000    21.97000000    38.87000000

Ca 1.00



