%chk=loop4.cluster36.chk
%nprocshared=20
%mem=10GB
%nosave
#b3lyp/svp scf=(tight,noincore,xqc) Test 
#IOP(5/87=12) Density=Current Pop=(MK,readradii) iop(6/33=2) iop(6/42=6)

loop4.cluster36 

   -3  1 
   C     73.39000000    53.12000000    39.34000000
   C     72.45000000    51.95000000    39.12000000
   O     71.23000000    51.99000000    38.97000000
   H     74.30500000    52.96200000    38.77000000
   H     72.91000000    54.04000000    39.00700000
   H     73.63200000    53.19800000    40.40000000
   N     73.05000000    50.76000000    39.22000000
   C     72.45000000    49.47000000    38.97000000
   C     71.71000000    49.08000000    40.23000000
   O     72.31000000    48.74000000    41.25000000
   C     73.58000000    48.50000000    38.60000000
   C     73.13000000    47.05000000    38.46000000
   O     72.10000000    46.83000000    37.78000000
   O     73.77000000    46.11000000    38.96000000
   H     74.05000000    50.77000000    39.40000000
   H     71.86000000    49.55000000    38.05000000
   H     74.33000000    48.62000000    39.37000000
   H     74.00000000    48.91000000    37.68000000
   N     70.38000000    49.02000000    40.09000000
   C     69.48000000    48.85000000    41.21000000
   C     69.09000000    47.40000000    41.43000000
   O     68.77000000    47.03000000    42.56000000
   C     68.19000000    49.64000000    41.07000000
   C     68.40000000    51.12000000    40.77000000
   C     67.26000000    49.42000000    42.26000000
   C     69.34000000    51.76000000    41.79000000
   H     70.04000000    49.43000000    39.23000000
   H     69.99000000    49.09000000    42.15000000
   H     67.72000000    49.12000000    40.23000000
   H     67.48000000    51.70000000    40.85000000
   H     68.85000000    51.31000000    39.79000000
   H     66.64000000    50.31000000    42.27000000
   H     66.74000000    48.48000000    42.04000000
   H     67.85000000    49.41000000    43.18000000
   H     69.33000000    52.84000000    41.62000000
   H     68.89000000    51.54000000    42.76000000
   H     70.36000000    51.38000000    41.79000000
   N     69.17000000    46.54000000    40.41000000
   C     68.83000000    45.14000000    40.56000000
   C     70.06000000    44.25000000    40.62000000
   O     69.93000000    43.08000000    40.95000000
   C     67.91000000    44.71000000    39.42000000
   C     68.50000000    45.06000000    38.07000000
   O     69.58000000    44.58000000    37.66000000
   O     67.94000000    45.98000000    37.42000000
   H     69.27000000    46.96000000    39.50000000
   H     68.28000000    45.00000000    41.49000000
   H     66.97000000    45.24000000    39.57000000
   H     67.63000000    43.66000000    39.49000000
   N     71.25000000    44.68000000    40.19000000
   C     72.49000000    43.96000000    40.43000000
   C     72.94000000    43.11000000    39.25000000
   O     73.66000000    42.15000000    39.51000000
   H     71.38000000    45.55000000    39.69000000
   H     72.38000000    43.32000000    41.31000000
   H     73.29000000    44.69000000    40.58000000
   N     72.44000000    43.24000000    38.02000000
   C     73.06000000    42.59000000    36.88000000
   C     74.35000000    43.26000000    36.42000000
   O     75.20000000    42.78000000    35.67000000
   C     72.12000000    42.46000000    35.68000000
   C     71.35000000    43.72000000    35.28000000
   O     71.98000000    44.79000000    35.18000000
   O     70.11000000    43.76000000    35.11000000
   H     71.94000000    44.09000000    37.81000000
   H     73.31000000    41.56000000    37.14000000
   H     71.46000000    41.62000000    35.88000000
   H     72.62000000    42.05000000    34.81000000
   N     74.58000000    44.55000000    36.69000000
   C     75.71000000    45.30000000    36.18000000
   C     75.45000000    46.02000000    34.86000000
   O     76.41000000    46.52000000    34.29000000
   H     73.99000000    45.09000000    37.30000000
   H     76.61000000    44.69000000    36.20000000
   H     76.01000000    46.12000000    36.83000000
   N     74.19000000    46.14000000    34.43000000
   C     73.72000000    46.86000000    33.26000000
   C     72.76000000    47.93000000    33.76000000
   O     71.84000000    47.60000000    34.50000000
   C     73.04000000    45.93000000    32.26000000
   C     73.99000000    44.88000000    31.69000000
   C     75.15000000    45.50000000    30.93000000
   N     76.32000000    44.85000000    30.85000000
   O     75.13000000    46.59000000    30.36000000
   H     73.48000000    45.70000000    35.00000000
   H     74.53000000    47.41000000    32.79000000
   H     72.65000000    46.59000000    31.48000000
   H     72.18000000    45.52000000    32.78000000
   H     73.52000000    44.20000000    30.99000000
   H     74.39000000    44.34000000    32.56000000
   H     76.28000000    43.94000000    31.28000000
   H     77.14000000    45.22000000    30.39000000
   N     72.96000000    49.20000000    33.40000000
   C     72.08000000    50.25000000    33.88000000
   C     71.04000000    50.54000000    32.81000000
   O     71.38000000    51.06000000    31.75000000
   C     72.84000000    51.45000000    34.44000000
   C     71.92000000    52.60000000    34.86000000
   C     73.82000000    51.01000000    35.52000000
   H     73.85000000    49.48000000    33.01000000
   H     71.44000000    49.87000000    34.68000000
   H     73.46000000    51.71000000    33.58000000
   H     72.50000000    53.46000000    35.19000000
   H     71.41000000    52.97000000    33.98000000
   H     71.24000000    52.34000000    35.67000000
   H     74.44000000    51.80000000    35.93000000
   H     73.24000000    50.53000000    36.31000000
   H     74.50000000    50.33000000    35.00000000
   N     69.77000000    50.19000000    33.01000000
   C     68.70000000    50.56000000    32.10000000
   C     68.28000000    52.01000000    32.25000000
   O     68.70000000    52.65000000    33.21000000
   C     67.49000000    49.66000000    32.38000000
   C     66.46000000    49.70000000    31.27000000
   N     66.75000000    49.13000000    30.09000000
   O     65.46000000    50.40000000    31.40000000
   H     69.75000000    49.53000000    33.77000000
   H     68.98000000    50.29000000    31.08000000
   H     66.97000000    50.09000000    33.24000000
   H     67.82000000    48.66000000    32.63000000
   H     67.64000000    48.66000000    30.05000000
   H     66.03000000    49.05000000    29.39000000
   N     67.40000000    52.60000000    31.44000000
   C     66.91000000    53.95000000    31.60000000
   C     66.19000000    54.19000000    32.92000000
   O     66.44000000    55.15000000    33.64000000
   C     66.20000000    54.40000000    30.32000000
   C     65.88000000    55.86000000    30.51000000
   C     66.86000000    56.80000000    30.20000000
   C     64.64000000    56.21000000    31.05000000
   C     66.37000000    58.11000000    30.18000000
   C     64.21000000    57.55000000    31.08000000
   C     65.08000000    58.52000000    30.57000000
   O     64.65000000    59.82000000    30.58000000
   H     67.04000000    51.99000000    30.72000000
   H     67.82000000    54.54000000    31.67000000
   H     65.25000000    53.86000000    30.23000000
   H     66.84000000    54.29000000    29.45000000
   H     67.87000000    56.52000000    29.92000000
   H     63.90000000    55.49000000    31.36000000
   H     67.03000000    58.90000000    29.87000000
   H     63.19000000    57.76000000    31.39000000
   H     63.70000000    59.92000000    30.48000000
   N     65.44000000    53.21000000    33.43000000
   C     64.75000000    53.21000000    34.70000000
   C     65.76000000    53.36000000    35.84000000
   O     65.43000000    53.97000000    36.86000000
   C     63.82000000    52.00000000    34.72000000
   C     64.56000000    50.72000000    35.10000000
   C     63.56000000    49.60000000    35.36000000
   O     63.63000000    48.54000000    34.70000000
   O     62.84000000    49.69000000    36.38000000
   H     65.55000000    52.35000000    32.91000000
   H     64.09000000    54.07000000    34.60000000
   H     63.43000000    51.90000000    33.71000000
   H     62.98000000    52.14000000    35.39000000
   H     65.04000000    50.93000000    36.05000000
   H     65.29000000    50.49000000    34.32000000
   N     66.94000000    52.75000000    35.70000000
   C     68.03000000    52.92000000    36.63000000
   C     68.78000000    54.24000000    36.49000000
   O     69.03000000    54.91000000    37.50000000
   C     68.89000000    51.68000000    36.41000000
   C     68.15000000    50.39000000    36.74000000
   C     69.00000000    49.14000000    36.58000000
   O     69.36000000    48.43000000    37.54000000
   O     69.39000000    48.79000000    35.44000000
   H     67.01000000    52.20000000    34.86000000
   H     67.68000000    52.84000000    37.66000000
   H     69.81000000    51.69000000    36.98000000
   H     69.19000000    51.64000000    35.36000000
   H     67.27000000    50.36000000    36.10000000
   H     67.77000000    50.49000000    37.76000000
   N     69.05000000    54.75000000    35.29000000
   C     69.71000000    56.00000000    34.96000000
   H     70.68300000    55.79000000    34.51500000
   H     69.09900000    56.55800000    34.25000000
   H     69.84500000    56.59100000    35.86600000
   H     68.69000000    54.29000000    34.46000000
  Ca     70.29000000    46.53000000    36.09000000
   O     68.58000000    46.09000000    33.94000000
   H     67.76000000    46.58000000    34.00000000
   H     68.31000000    45.18000000    33.80000000

Ca 1.00



