%chk=loop4.cluster149.chk
%nprocshared=20
%mem=10GB
%nosave
#b3lyp/svp scf=(tight,noincore,xqc) Test 
#IOP(5/87=12) Density=Current Pop=(MK,readradii) iop(6/33=2) iop(6/42=6)

loop4.cluster149 

   -3  1 
   C     50.24000000    36.52000000    30.32000000
   C     51.24000000    37.66000000    30.19000000
   O     52.44000000    37.39000000    30.10000000
   H     49.32600000    36.77600000    29.78400000
   H     50.66700000    35.61100000    29.89600000
   H     50.00900000    36.35700000    31.37300000
   N     50.79000000    38.91000000    30.26000000
   C     51.46000000    40.17000000    30.04000000
   C     52.32000000    40.10000000    28.78000000
   O     53.52000000    39.88000000    28.88000000
   C     52.19000000    40.60000000    31.31000000
   C     53.17000000    39.67000000    32.01000000
   O     52.74000000    38.92000000    32.91000000
   O     54.35000000    39.68000000    31.60000000
   H     49.81000000    39.08000000    30.47000000
   H     50.68000000    40.90000000    29.83000000
   H     51.33000000    40.84000000    31.93000000
   H     52.68000000    41.55000000    31.06000000
   N     51.71000000    40.28000000    27.61000000
   C     52.26000000    40.23000000    26.27000000
   C     53.52000000    41.04000000    25.95000000
   O     53.91000000    41.17000000    24.79000000
   C     52.35000000    38.83000000    25.67000000
   C     51.00000000    38.22000000    25.34000000
   C     53.17000000    37.83000000    26.48000000
   C     49.93000000    38.03000000    26.41000000
   H     50.73000000    40.54000000    27.60000000
   H     51.41000000    40.60000000    25.69000000
   H     52.78000000    38.87000000    24.67000000
   H     51.21000000    37.24000000    24.90000000
   H     50.53000000    38.77000000    24.52000000
   H     53.39000000    36.86000000    26.03000000
   H     54.14000000    38.33000000    26.48000000
   H     52.80000000    37.64000000    27.49000000
   H     49.07000000    37.56000000    25.94000000
   H     50.25000000    37.28000000    27.13000000
   H     49.57000000    38.96000000    26.86000000
   N     54.13000000    41.76000000    26.90000000
   C     54.99000000    42.90000000    26.67000000
   C     56.43000000    42.41000000    26.71000000
   O     56.99000000    41.91000000    27.69000000
   C     54.83000000    44.00000000    27.71000000
   C     54.53000000    43.50000000    29.12000000
   O     53.94000000    44.29000000    29.89000000
   O     54.82000000    42.36000000    29.55000000
   H     53.85000000    41.63000000    27.86000000
   H     54.67000000    43.43000000    25.78000000
   H     54.14000000    44.77000000    27.35000000
   H     55.80000000    44.50000000    27.71000000
   N     57.16000000    42.59000000    25.60000000
   C     56.77000000    43.10000000    24.30000000
   C     57.79000000    42.69000000    23.24000000
   O     58.95000000    42.40000000    23.51000000
   H     58.11000000    42.27000000    25.54000000
   H     56.74000000    44.19000000    24.37000000
   H     55.77000000    42.72000000    24.14000000
   N     57.39000000    42.69000000    21.97000000
   C     56.09000000    42.92000000    21.38000000
   C     55.13000000    41.74000000    21.40000000
   O     54.02000000    42.04000000    21.81000000
   C     56.16000000    43.65000000    20.04000000
   C     57.22000000    43.41000000    18.98000000
   O     58.38000000    43.11000000    19.34000000
   O     56.87000000    43.24000000    17.79000000
   H     58.15000000    42.66000000    21.30000000
   H     55.59000000    43.67000000    21.99000000
   H     56.34000000    44.69000000    20.33000000
   H     55.15000000    43.57000000    19.63000000
   N     55.42000000    40.46000000    21.12000000
   C     56.67000000    39.86000000    20.72000000
   C     56.51000000    38.48000000    20.11000000
   O     55.35000000    38.10000000    19.93000000
   H     54.62000000    39.90000000    21.38000000
   H     57.47000000    39.86000000    21.46000000
   H     57.02000000    40.59000000    19.98000000
   N     57.63000000    37.79000000    19.91000000
   C     57.81000000    36.49000000    19.30000000
   C     57.36000000    35.23000000    20.03000000
   O     57.38000000    34.16000000    19.43000000
   C     59.16000000    36.30000000    18.60000000
   C     59.40000000    37.32000000    17.49000000
   C     60.72000000    37.38000000    16.73000000
   N     61.66000000    38.27000000    17.05000000
   O     60.85000000    36.75000000    15.69000000
   H     58.44000000    38.25000000    20.32000000
   H     57.18000000    36.50000000    18.41000000
   H     59.19000000    35.28000000    18.21000000
   H     59.95000000    36.37000000    19.34000000
   H     59.23000000    38.37000000    17.74000000
   H     58.62000000    37.14000000    16.74000000
   H     61.59000000    38.69000000    17.97000000
   H     62.56000000    38.22000000    16.61000000
   N     56.86000000    35.37000000    21.26000000
   C     56.32000000    34.28000000    22.04000000
   C     57.04000000    34.05000000    23.37000000
   O     56.38000000    33.63000000    24.32000000
   C     54.81000000    34.46000000    22.12000000
   C     54.27000000    34.52000000    20.70000000
   C     54.46000000    35.78000000    22.81000000
   H     56.76000000    36.31000000    21.64000000
   H     56.33000000    33.31000000    21.54000000
   H     54.23000000    33.67000000    22.59000000
   H     54.46000000    35.48000000    20.22000000
   H     54.75000000    33.71000000    20.14000000
   H     53.19000000    34.33000000    20.78000000
   H     53.40000000    35.97000000    22.69000000
   H     54.61000000    35.76000000    23.89000000
   H     54.90000000    36.65000000    22.34000000
   N     58.36000000    34.21000000    23.42000000
   C     59.28000000    33.55000000    24.34000000
   C     60.15000000    34.40000000    25.26000000
   O     60.33000000    33.99000000    26.40000000
   C     60.05000000    32.45000000    23.63000000
   C     59.28000000    31.63000000    22.60000000
   N     59.82000000    31.59000000    21.38000000
   O     58.28000000    30.96000000    22.85000000
   H     58.84000000    34.78000000    22.75000000
   H     58.58000000    33.02000000    24.99000000
   H     60.43000000    31.67000000    24.29000000
   H     60.84000000    33.05000000    23.17000000
   H     60.70000000    32.04000000    21.15000000
   H     59.25000000    31.06000000    20.74000000
   N     60.67000000    35.52000000    24.75000000
   C     61.76000000    36.14000000    25.47000000
   C     61.36000000    36.76000000    26.81000000
   O     60.50000000    37.63000000    26.74000000
   C     62.65000000    37.11000000    24.71000000
   C     63.80000000    37.44000000    25.63000000
   C     64.76000000    36.52000000    26.06000000
   C     63.73000000    38.68000000    26.27000000
   C     65.61000000    36.86000000    27.12000000
   C     64.68000000    39.09000000    27.22000000
   C     65.53000000    38.11000000    27.77000000
   O     66.51000000    38.45000000    28.65000000
   H     60.80000000    35.38000000    23.75000000
   H     62.45000000    35.33000000    25.74000000
   H     62.09000000    38.04000000    24.55000000
   H     62.95000000    36.68000000    23.75000000
   H     64.89000000    35.55000000    25.62000000
   H     63.07000000    39.49000000    26.00000000
   H     66.30000000    36.09000000    27.43000000
   H     64.82000000    40.12000000    27.53000000
   H     66.36000000    39.37000000    28.88000000
   N     61.84000000    36.37000000    27.99000000
   C     61.30000000    36.83000000    29.25000000
   C     59.95000000    36.24000000    29.66000000
   O     59.51000000    36.36000000    30.80000000
   C     61.55000000    38.32000000    29.46000000
   C     61.84000000    38.63000000    30.92000000
   C     61.53000000    40.06000000    31.32000000
   O     62.45000000    40.87000000    31.57000000
   O     60.33000000    40.36000000    31.49000000
   H     62.41000000    35.54000000    28.04000000
   H     62.01000000    36.42000000    29.97000000
   H     60.68000000    38.91000000    29.17000000
   H     62.48000000    38.61000000    28.97000000
   H     62.86000000    38.34000000    31.19000000
   H     61.24000000    38.04000000    31.62000000
   N     59.20000000    35.66000000    28.73000000
   C     57.88000000    35.07000000    28.87000000
   C     58.06000000    33.61000000    29.28000000
   O     57.35000000    33.10000000    30.15000000
   C     56.99000000    35.22000000    27.64000000
   C     57.06000000    36.58000000    26.95000000
   C     56.63000000    37.75000000    27.81000000
   O     56.72000000    38.92000000    27.40000000
   O     56.31000000    37.61000000    29.01000000
   H     59.59000000    35.41000000    27.83000000
   H     57.37000000    35.63000000    29.66000000
   H     56.00000000    35.03000000    28.06000000
   H     57.38000000    34.43000000    27.00000000
   H     56.29000000    36.71000000    26.19000000
   H     58.05000000    36.78000000    26.53000000
   N     58.98000000    32.90000000    28.63000000
   C     59.41000000    31.54000000    28.86000000
   H     60.35400000    31.54500000    29.40500000
   H     58.65600000    31.01400000    29.44600000
   H     59.54600000    31.03500000    27.90400000
   H     59.52000000    33.39000000    27.93000000
  Ca     56.03000000    40.18000000    29.68000000
   O     58.66000000    40.40000000    29.32000000
   H     59.29000000    40.64000000    28.63000000
   H     59.17000000    40.39000000    30.12000000
   O     56.98000000    42.32000000    31.37000000
   H     57.45000000    43.13000000    31.16000000
   H     56.06000000    42.59000000    31.43000000
   O     58.18000000    38.81000000    31.57000000
   H     58.51000000    37.96000000    31.27000000
   H     58.96000000    39.37000000    31.62000000

Ca 1.00



