%chk=loop4.cluster65.chk
%nprocshared=20
%mem=10GB
%nosave
#b3lyp/svp scf=(tight,noincore,xqc) Test 
#IOP(5/87=12) Density=Current Pop=(MK,readradii) iop(6/33=2) iop(6/42=6)

loop4.cluster65 

   -3  1 
   C     79.87000000    48.61000000    80.98000000
   C     80.73000000    47.35000000    80.94000000
   O     81.26000000    46.89000000    79.92000000
   H     78.92800000    48.39100000    81.48300000
   H     80.39800000    49.39400000    81.52300000
   H     79.66800000    48.94500000    79.96300000
   N     80.81000000    46.63000000    82.06000000
   C     81.46000000    45.35000000    82.24000000
   C     82.97000000    45.52000000    82.39000000
   O     83.80000000    44.66000000    82.10000000
   C     81.08000000    44.16000000    81.37000000
   C     79.61000000    43.84000000    81.16000000
   O     78.74000000    44.28000000    81.95000000
   O     79.32000000    43.11000000    80.19000000
   H     80.50000000    47.10000000    82.90000000
   H     81.04000000    45.05000000    83.20000000
   H     81.50000000    43.30000000    81.89000000
   H     81.53000000    44.33000000    80.39000000
   N     83.36000000    46.69000000    82.90000000
   C     84.70000000    46.99000000    83.35000000
   C     84.74000000    46.94000000    84.87000000
   O     83.98000000    47.59000000    85.59000000
   C     85.01000000    48.36000000    82.76000000
   C     84.98000000    48.44000000    81.24000000
   C     86.33000000    48.89000000    83.32000000
   C     85.77000000    47.44000000    80.40000000
   H     82.67000000    47.40000000    83.12000000
   H     85.39000000    46.31000000    82.84000000
   H     84.28000000    49.11000000    83.08000000
   H     85.39000000    49.40000000    80.93000000
   H     83.95000000    48.45000000    80.88000000
   H     87.15000000    48.18000000    83.26000000
   H     86.51000000    49.83000000    82.79000000
   H     86.24000000    49.10000000    84.39000000
   H     85.47000000    47.64000000    79.37000000
   H     86.82000000    47.59000000    80.62000000
   H     85.63000000    46.41000000    80.73000000
   N     85.58000000    46.16000000    85.56000000
   C     86.56000000    45.28000000    84.96000000
   C     85.98000000    43.97000000    84.45000000
   O     86.39000000    43.42000000    83.43000000
   C     87.74000000    45.18000000    85.92000000
   C     88.24000000    46.57000000    86.26000000
   O     88.79000000    47.19000000    85.32000000
   O     88.28000000    46.89000000    87.47000000
   H     85.41000000    46.14000000    86.56000000
   H     86.97000000    45.73000000    84.06000000
   H     88.56000000    44.63000000    85.45000000
   H     87.40000000    44.73000000    86.86000000
   N     84.94000000    43.39000000    85.07000000
   C     84.12000000    42.36000000    84.47000000
   C     84.79000000    40.99000000    84.47000000
   O     85.23000000    40.57000000    85.53000000
   H     84.66000000    43.68000000    86.00000000
   H     83.90000000    42.61000000    83.44000000
   H     83.16000000    42.35000000    84.98000000
   N     84.62000000    40.25000000    83.37000000
   C     85.33000000    39.05000000    82.98000000
   C     86.32000000    39.26000000    81.84000000
   O     86.95000000    38.31000000    81.39000000
   C     84.30000000    37.94000000    82.77000000
   C     83.41000000    38.05000000    81.54000000
   O     83.59000000    39.04000000    80.80000000
   O     82.38000000    37.34000000    81.45000000
   H     84.15000000    40.64000000    82.56000000
   H     85.93000000    38.82000000    83.86000000
   H     83.68000000    37.91000000    83.67000000
   H     84.82000000    36.99000000    82.67000000
   N     86.50000000    40.54000000    81.48000000
   C     87.30000000    40.92000000    80.33000000
   C     86.59000000    40.70000000    79.00000000
   O     87.17000000    41.12000000    78.00000000
   H     85.96000000    41.29000000    81.90000000
   H     88.23000000    40.35000000    80.33000000
   H     87.42000000    42.00000000    80.36000000
   N     85.47000000    39.97000000    78.98000000
   C     84.72000000    39.67000000    77.78000000
   C     84.51000000    40.87000000    76.86000000
   O     84.97000000    40.79000000    75.73000000
   C     85.31000000    38.43000000    77.13000000
   C     85.19000000    37.23000000    78.07000000
   C     85.14000000    35.89000000    77.35000000
   N     84.76000000    34.92000000    78.19000000
   O     85.51000000    35.81000000    76.18000000
   H     85.24000000    39.52000000    79.85000000
   H     83.69000000    39.39000000    78.01000000
   H     86.36000000    38.57000000    76.88000000
   H     84.69000000    38.19000000    76.26000000
   H     84.24000000    37.23000000    78.59000000
   H     85.92000000    37.27000000    78.87000000
   H     84.62000000    35.10000000    79.18000000
   H     84.93000000    34.00000000    77.81000000
   N     83.92000000    41.98000000    77.30000000
   C     83.44000000    43.04000000    76.44000000
   C     82.37000000    42.63000000    75.44000000
   O     81.51000000    41.80000000    75.73000000
   C     82.94000000    44.26000000    77.21000000
   C     83.67000000    44.62000000    78.50000000
   C     82.85000000    45.57000000    76.43000000
   H     83.41000000    41.91000000    78.17000000
   H     84.24000000    43.33000000    75.76000000
   H     81.94000000    43.95000000    77.51000000
   H     84.71000000    44.88000000    78.32000000
   H     83.22000000    45.51000000    78.95000000
   H     83.41000000    43.90000000    79.27000000
   H     82.83000000    46.43000000    77.11000000
   H     83.81000000    45.57000000    75.91000000
   H     81.98000000    45.56000000    75.77000000
   N     82.34000000    43.18000000    74.23000000
   C     81.33000000    43.00000000    73.20000000
   C     80.85000000    44.34000000    72.67000000
   O     81.61000000    45.18000000    72.19000000
   C     82.00000000    42.13000000    72.13000000
   C     81.22000000    42.07000000    70.82000000
   N     80.08000000    41.38000000    70.72000000
   O     81.71000000    42.46000000    69.77000000
   H     83.12000000    43.77000000    73.99000000
   H     80.48000000    42.49000000    73.65000000
   H     82.04000000    41.11000000    72.50000000
   H     82.98000000    42.52000000    71.88000000
   H     79.69000000    41.05000000    71.59000000
   H     79.77000000    41.27000000    69.77000000
   N     79.54000000    44.43000000    72.46000000
   C     78.67000000    45.44000000    71.89000000
   C     77.25000000    45.46000000    72.45000000
   O     76.33000000    45.56000000    71.65000000
   C     78.78000000    45.34000000    70.37000000
   C     78.49000000    46.55000000    69.50000000
   C     79.51000000    47.51000000    69.48000000
   C     77.47000000    46.60000000    68.55000000
   C     79.40000000    48.65000000    68.68000000
   C     77.34000000    47.73000000    67.72000000
   C     78.31000000    48.74000000    67.79000000
   O     78.22000000    49.77000000    66.91000000
   H     79.05000000    43.57000000    72.71000000
   H     79.10000000    46.40000000    72.17000000
   H     78.05000000    44.58000000    70.09000000
   H     79.71000000    44.92000000    70.00000000
   H     80.35000000    47.47000000    70.15000000
   H     76.69000000    45.86000000    68.46000000
   H     80.17000000    49.41000000    68.55000000
   H     76.52000000    47.92000000    67.04000000
   H     77.33000000    49.91000000    66.60000000
   N     77.03000000    45.36000000    73.76000000
   C     75.71000000    45.44000000    74.34000000
   C     75.15000000    46.85000000    74.50000000
   O     74.05000000    47.12000000    74.01000000
   C     75.60000000    44.61000000    75.61000000
   C     75.57000000    43.11000000    75.33000000
   C     75.03000000    42.29000000    76.49000000
   O     75.31000000    42.53000000    77.69000000
   O     74.23000000    41.36000000    76.28000000
   H     77.84000000    45.39000000    74.36000000
   H     74.98000000    44.99000000    73.67000000
   H     74.68000000    44.82000000    76.15000000
   H     76.43000000    44.76000000    76.30000000
   H     76.59000000    42.90000000    75.03000000
   H     74.96000000    42.91000000    74.44000000
   N     75.84000000    47.82000000    75.10000000
   C     77.20000000    47.88000000    75.60000000
   C     78.18000000    48.27000000    74.52000000
   O     77.95000000    48.43000000    73.32000000
   C     77.26000000    48.99000000    76.64000000
   C     76.39000000    48.73000000    77.87000000
   C     76.67000000    47.42000000    78.59000000
   O     75.66000000    46.81000000    79.01000000
   O     77.81000000    47.05000000    78.94000000
   H     75.36000000    48.71000000    75.16000000
   H     77.49000000    46.98000000    76.14000000
   H     76.97000000    49.91000000    76.14000000
   H     78.26000000    49.13000000    77.06000000
   H     75.39000000    48.75000000    77.43000000
   H     76.40000000    49.55000000    78.59000000
   N     79.43000000    48.53000000    74.92000000
   C     80.54000000    49.15000000    74.24000000
   H     81.41200000    48.49800000    74.30000000
   H     80.28100000    49.31400000    73.19400000
   H     80.76800000    50.10600000    74.71200000
   H     79.67000000    48.28000000    75.87000000
  Ca     76.67000000    45.26000000    80.82000000
   O     76.50000000    42.47000000    81.09000000
   H     77.05000000    41.69000000    80.97000000
   H     75.60000000    42.13000000    81.10000000
   O     77.45000000    43.97000000    78.60000000
   H     78.04000000    43.41000000    79.10000000
   H     77.13000000    43.42000000    77.88000000
   O     74.46000000    44.16000000    79.39000000
   H     73.54000000    43.94000000    79.51000000
   H     74.75000000    43.59000000    78.67000000

Ca 1.00



