%chk=loop4.cluster20.chk
%nprocshared=20
%mem=10GB
%nosave
#b3lyp/svp scf=(tight,noincore,xqc) Test 
#IOP(5/87=12) Density=Current Pop=(MK,readradii) iop(6/33=2) iop(6/42=6)

loop4.cluster20 

   -3  1 
   C     55.31000000    55.93000000    45.13000000
   C     54.67000000    56.65000000    46.31000000
   O     53.73000000    57.42000000    46.13000000
   H     56.31600000    55.61100000    45.40200000
   H     54.71100000    55.05800000    44.86800000
   H     55.36200000    56.60600000    44.27600000
   N     55.00000000    56.29000000    47.55000000
   C     54.33000000    56.86000000    48.71000000
   C     54.64000000    58.35000000    48.84000000
   O     55.79000000    58.75000000    48.68000000
   C     54.66000000    55.99000000    49.92000000
   C     53.97000000    56.41000000    51.21000000
   O     53.16000000    57.36000000    51.27000000
   O     54.15000000    55.68000000    52.21000000
   H     55.83000000    55.74000000    47.66000000
   H     53.26000000    56.77000000    48.53000000
   H     55.74000000    56.01000000    50.08000000
   H     54.46000000    54.95000000    49.67000000
   N     53.60000000    59.15000000    49.06000000
   C     53.73000000    60.59000000    49.00000000
   C     53.69000000    61.21000000    50.39000000
   O     54.41000000    62.15000000    50.71000000
   C     52.54000000    61.06000000    48.16000000
   C     52.67000000    60.59000000    46.71000000
   C     52.47000000    62.58000000    48.28000000
   C     51.61000000    61.10000000    45.75000000
   H     52.67000000    58.76000000    49.18000000
   H     54.69000000    60.86000000    48.56000000
   H     51.65000000    60.60000000    48.58000000
   H     52.56000000    59.50000000    46.73000000
   H     53.64000000    60.90000000    46.31000000
   H     53.42000000    63.00000000    47.94000000
   H     51.68000000    63.05000000    47.70000000
   H     52.23000000    62.95000000    49.28000000
   H     51.78000000    62.17000000    45.61000000
   H     51.69000000    60.70000000    44.74000000
   H     50.62000000    61.01000000    46.19000000
   N     52.87000000    60.61000000    51.25000000
   C     52.73000000    61.01000000    52.64000000
   C     53.59000000    60.29000000    53.68000000
   O     53.93000000    60.88000000    54.71000000
   C     51.28000000    60.87000000    53.09000000
   C     50.57000000    59.59000000    52.68000000
   O     50.86000000    58.53000000    53.28000000
   O     50.12000000    59.49000000    51.52000000
   H     52.28000000    59.88000000    50.86000000
   H     52.92000000    62.08000000    52.74000000
   H     50.78000000    61.76000000    52.70000000
   H     51.12000000    60.99000000    54.16000000
   N     54.11000000    59.15000000    53.24000000
   C     55.17000000    58.45000000    53.94000000
   C     54.65000000    57.37000000    54.88000000
   O     55.42000000    57.08000000    55.80000000
   H     53.99000000    58.91000000    52.27000000
   H     55.87000000    59.09000000    54.49000000
   H     55.76000000    57.96000000    53.17000000
   N     53.36000000    57.03000000    54.84000000
   C     52.84000000    56.16000000    55.87000000
   C     53.23000000    54.69000000    55.79000000
   O     52.97000000    53.89000000    56.68000000
   C     51.32000000    56.22000000    55.99000000
   C     50.51000000    55.75000000    54.79000000
   O     49.27000000    55.62000000    54.88000000
   O     51.06000000    55.47000000    53.70000000
   H     52.86000000    57.13000000    53.97000000
   H     53.13000000    56.61000000    56.82000000
   H     51.10000000    57.25000000    56.28000000
   H     51.09000000    55.70000000    56.92000000
   N     53.77000000    54.26000000    54.64000000
   C     54.15000000    52.90000000    54.33000000
   C     53.19000000    52.22000000    53.36000000
   O     53.37000000    51.08000000    52.94000000
   H     54.06000000    54.96000000    53.97000000
   H     54.13000000    52.27000000    55.22000000
   H     55.15000000    52.93000000    53.89000000
   N     52.18000000    52.95000000    52.88000000
   C     51.23000000    52.34000000    51.97000000
   C     51.16000000    53.13000000    50.67000000
   O     51.28000000    54.35000000    50.73000000
   C     49.80000000    52.29000000    52.51000000
   C     49.63000000    52.02000000    54.00000000
   C     48.21000000    52.05000000    54.55000000
   N     47.74000000    53.22000000    54.97000000
   O     47.48000000    51.06000000    54.50000000
   H     52.16000000    53.94000000    53.04000000
   H     51.47000000    51.30000000    51.75000000
   H     49.33000000    51.54000000    51.87000000
   H     49.30000000    53.24000000    52.32000000
   H     50.19000000    52.76000000    54.57000000
   H     49.98000000    51.03000000    54.29000000
   H     48.33000000    54.03000000    54.91000000
   H     46.77000000    53.31000000    55.27000000
   N     50.63000000    52.49000000    49.62000000
   C     50.27000000    53.11000000    48.37000000
   C     48.80000000    52.95000000    48.05000000
   O     48.33000000    51.88000000    47.66000000
   C     51.16000000    52.60000000    47.23000000
   C     50.65000000    52.88000000    45.83000000
   C     52.53000000    53.27000000    47.14000000
   H     50.56000000    51.49000000    49.75000000
   H     50.46000000    54.19000000    48.46000000
   H     51.39000000    51.54000000    47.39000000
   H     50.08000000    53.81000000    45.89000000
   H     51.40000000    52.78000000    45.05000000
   H     49.99000000    52.05000000    45.56000000
   H     53.02000000    53.24000000    48.11000000
   H     53.19000000    52.59000000    46.60000000
   H     52.48000000    54.32000000    46.85000000
   N     47.99000000    54.01000000    48.19000000
   C     46.61000000    54.12000000    47.75000000
   C     46.39000000    54.44000000    46.27000000
   O     47.34000000    54.73000000    45.55000000
   C     45.94000000    55.08000000    48.72000000
   C     45.71000000    56.52000000    48.27000000
   N     46.65000000    57.41000000    48.58000000
   O     44.68000000    56.81000000    47.66000000
   H     48.36000000    54.83000000    48.65000000
   H     46.12000000    53.15000000    47.87000000
   H     46.56000000    55.08000000    49.61000000
   H     44.95000000    54.68000000    48.92000000
   H     47.50000000    57.08000000    49.01000000
   H     46.48000000    58.38000000    48.36000000
   N     45.13000000    54.33000000    45.85000000
   C     44.85000000    54.48000000    44.44000000
   C     45.30000000    55.83000000    43.90000000
   O     45.95000000    55.83000000    42.85000000
   C     43.36000000    54.26000000    44.22000000
   C     42.99000000    54.34000000    42.75000000
   C     43.26000000    53.23000000    41.95000000
   C     42.41000000    55.47000000    42.15000000
   C     42.99000000    53.31000000    40.58000000
   C     41.97000000    55.46000000    40.82000000
   C     42.35000000    54.40000000    39.97000000
   O     42.04000000    54.44000000    38.64000000
   H     44.45000000    54.11000000    46.56000000
   H     45.40000000    53.79000000    43.80000000
   H     42.80000000    55.05000000    44.71000000
   H     43.13000000    53.23000000    44.50000000
   H     43.67000000    52.32000000    42.37000000
   H     42.08000000    56.29000000    42.77000000
   H     43.05000000    52.45000000    39.92000000
   H     41.39000000    56.29000000    40.45000000
   H     41.65000000    55.29000000    38.42000000
   N     45.08000000    56.94000000    44.62000000
   C     45.47000000    58.28000000    44.24000000
   C     46.97000000    58.53000000    44.30000000
   O     47.46000000    59.46000000    43.67000000
   C     44.80000000    59.36000000    45.09000000
   C     43.29000000    59.45000000    44.86000000
   C     42.66000000    60.80000000    45.18000000
   O     42.37000000    61.04000000    46.37000000
   O     42.44000000    61.58000000    44.23000000
   H     44.49000000    56.86000000    45.43000000
   H     45.13000000    58.41000000    43.22000000
   H     45.20000000    60.34000000    44.84000000
   H     45.10000000    59.18000000    46.12000000
   H     42.70000000    58.71000000    45.39000000
   H     43.17000000    59.26000000    43.79000000
   N     47.78000000    57.67000000    44.93000000
   C     49.22000000    57.58000000    44.75000000
   C     49.68000000    56.74000000    43.57000000
   O     50.66000000    56.97000000    42.87000000
   C     49.93000000    57.16000000    46.04000000
   C     49.78000000    58.13000000    47.21000000
   C     50.04000000    57.45000000    48.55000000
   O     51.06000000    57.85000000    49.14000000
   O     49.29000000    56.55000000    48.98000000
   H     47.29000000    56.94000000    45.43000000
   H     49.52000000    58.59000000    44.46000000
   H     50.98000000    57.15000000    45.78000000
   H     49.58000000    56.15000000    46.24000000
   H     48.75000000    58.44000000    47.36000000
   H     50.31000000    59.06000000    47.00000000
   N     48.99000000    55.62000000    43.33000000
   C     49.31000000    54.71000000    42.25000000
   H     50.33100000    54.34800000    42.37100000
   H     48.62100000    53.86600000    42.26900000
   H     49.22100000    55.23100000    41.29700000
   H     48.17000000    55.41000000    43.88000000
  Ca     50.65000000    56.76000000    51.46000000
   O     48.27000000    56.18000000    52.41000000
   H     48.62000000    55.95000000    53.26000000
   H     47.51000000    56.73000000    52.60000000

Ca 1.00



