%chk=loop2.cluster149.chk
%nprocshared=20
%mem=10GB
%nosave
#b3lyp/svp scf=(tight,noincore,xqc) Test 
#IOP(5/87=12) Density=Current Pop=(MK,readradii) iop(6/33=2) iop(6/42=6)

loop2.cluster149 

   -2  1 
   C     63.63000000    57.90000000    16.67000000
   C     62.56000000    58.61000000    17.49000000
   O     62.79000000    59.62000000    18.16000000
   H     64.54300000    57.81800000    17.25900000
   H     63.28100000    56.90300000    16.40100000
   H     63.83300000    58.47100000    15.76400000
   N     61.37000000    58.02000000    17.45000000
   C     60.27000000    58.31000000    18.35000000
   C     60.52000000    57.91000000    19.80000000
   O     60.48000000    56.72000000    20.10000000
   C     58.99000000    57.65000000    17.85000000
   C     57.84000000    57.95000000    18.80000000
   O     56.82000000    57.23000000    18.74000000
   O     57.87000000    58.93000000    19.58000000
   H     61.19000000    57.44000000    16.64000000
   H     60.08000000    59.38000000    18.28000000
   H     59.08000000    56.56000000    17.77000000
   H     58.80000000    58.01000000    16.84000000
   N     60.83000000    58.86000000    20.69000000
   C     61.11000000    58.43000000    22.04000000
   C     59.95000000    58.06000000    22.95000000
   O     60.18000000    57.55000000    24.05000000
   C     62.00000000    59.44000000    22.75000000
   H     60.85000000    59.85000000    20.47000000
   H     61.61000000    57.46000000    21.97000000
   H     62.83000000    59.81000000    22.14000000
   H     61.41000000    60.33000000    22.97000000
   H     62.37000000    59.17000000    23.73000000
   N     58.71000000    58.20000000    22.46000000
   C     57.47000000    58.05000000    23.19000000
   C     56.62000000    56.88000000    22.74000000
   O     55.69000000    56.57000000    23.48000000
   C     56.59000000    59.25000000    22.86000000
   C     57.28000000    60.59000000    23.07000000
   O     57.78000000    61.21000000    22.11000000
   O     57.35000000    61.11000000    24.20000000
   H     58.68000000    58.51000000    21.50000000
   H     57.58000000    58.02000000    24.28000000
   H     55.69000000    59.24000000    23.48000000
   H     56.29000000    59.33000000    21.82000000
   N     57.06000000    56.17000000    21.70000000
   C     56.50000000    54.85000000    21.47000000
   C     55.16000000    54.83000000    20.74000000
   O     54.67000000    53.75000000    20.41000000
   H     57.94000000    56.38000000    21.25000000
   H     56.48000000    54.41000000    22.47000000
   H     57.24000000    54.27000000    20.91000000
   N     54.50000000    55.95000000    20.45000000
   C     53.23000000    55.92000000    19.77000000
   C     53.28000000    55.96000000    18.25000000
   O     52.25000000    55.90000000    17.58000000
   C     52.38000000    57.10000000    20.24000000
   C     52.84000000    58.53000000    20.01000000
   N     53.21000000    59.27000000    21.06000000
   O     53.05000000    58.94000000    18.88000000
   H     54.94000000    56.83000000    20.66000000
   H     52.70000000    55.08000000    20.22000000
   H     52.10000000    56.93000000    21.28000000
   H     51.38000000    57.10000000    19.80000000
   H     52.98000000    58.94000000    21.99000000
   H     53.38000000    60.23000000    20.81000000
   N     54.40000000    56.29000000    17.59000000
   C     54.63000000    56.40000000    16.17000000
   C     54.63000000    57.81000000    15.60000000
   O     54.22000000    57.96000000    14.45000000
   H     55.21000000    56.27000000    18.20000000
   H     53.92000000    55.77000000    15.64000000
   H     55.64000000    56.13000000    15.85000000
   N     55.18000000    58.82000000    16.29000000
   C     55.09000000    60.21000000    15.89000000
   C     56.41000000    60.96000000    16.04000000
   O     57.15000000    60.79000000    17.00000000
   C     53.89000000    60.89000000    16.55000000
   C     53.54000000    62.11000000    15.71000000
   O     52.72000000    60.13000000    16.36000000
   H     55.74000000    58.64000000    17.10000000
   H     54.98000000    60.18000000    14.80000000
   H     54.00000000    61.05000000    17.62000000
   H     52.56000000    59.59000000    17.14000000
   H     54.26000000    62.92000000    15.81000000
   H     53.47000000    61.88000000    14.65000000
   H     52.64000000    62.54000000    16.14000000
   N     56.74000000    61.88000000    15.14000000
   C     57.96000000    62.66000000    15.05000000
   C     57.66000000    64.04000000    15.61000000
   O     57.07000000    64.86000000    14.91000000
   C     58.46000000    62.53000000    13.61000000
   C     58.78000000    61.12000000    13.13000000
   C     59.66000000    63.45000000    13.44000000
   C     59.81000000    60.49000000    14.07000000
   H     56.05000000    62.14000000    14.45000000
   H     58.73000000    62.21000000    15.67000000
   H     57.66000000    62.96000000    13.00000000
   H     59.26000000    61.04000000    12.16000000
   H     57.94000000    60.42000000    13.19000000
   H     59.48000000    64.49000000    13.71000000
   H     60.53000000    63.12000000    14.01000000
   H     60.12000000    63.43000000    12.44000000
   H     59.45000000    60.43000000    15.10000000
   H     60.02000000    59.52000000    13.61000000
   H     60.71000000    61.08000000    14.20000000
   N     58.26000000    64.32000000    16.77000000
   C     58.67000000    65.63000000    17.24000000
   C     59.94000000    66.19000000    16.60000000
   O     60.75000000    65.50000000    15.98000000
   C     58.82000000    65.64000000    18.76000000
   C     57.57000000    65.09000000    19.43000000
   O     57.64000000    64.06000000    20.13000000
   O     56.52000000    65.72000000    19.17000000
   H     58.71000000    63.57000000    17.27000000
   H     57.83000000    66.26000000    16.95000000
   H     59.05000000    66.63000000    19.14000000
   H     59.66000000    65.01000000    19.05000000
   N     60.10000000    67.51000000    16.67000000
   C     61.24000000    68.15000000    16.03000000
   C     62.60000000    67.56000000    16.38000000
   O     63.29000000    67.12000000    15.46000000
   C     61.29000000    69.67000000    16.13000000
   C     62.46000000    70.31000000    15.42000000
   C     62.50000000    70.23000000    14.02000000
   C     63.39000000    71.11000000    16.09000000
   C     63.50000000    70.91000000    13.31000000
   C     64.39000000    71.77000000    15.37000000
   C     64.49000000    71.64000000    13.98000000
   H     59.43000000    68.08000000    17.17000000
   H     61.00000000    68.00000000    14.98000000
   H     61.46000000    69.89000000    17.19000000
   H     60.35000000    70.09000000    15.79000000
   H     61.68000000    69.78000000    13.48000000
   H     63.33000000    71.21000000    17.16000000
   H     63.49000000    70.77000000    12.24000000
   H     65.16000000    72.26000000    15.94000000
   H     65.24000000    72.14000000    13.39000000
   N     62.98000000    67.34000000    17.64000000
   C     64.29000000    66.84000000    17.96000000
   C     64.46000000    65.38000000    17.56000000
   O     65.56000000    64.91000000    17.29000000
   C     64.51000000    66.94000000    19.47000000
   C     63.10000000    67.20000000    20.00000000
   C     62.36000000    67.86000000    18.85000000
   H     65.10000000    67.46000000    17.56000000
   H     64.88000000    66.04000000    19.95000000
   H     65.12000000    67.79000000    19.79000000
   H     62.59000000    66.25000000    20.13000000
   H     63.04000000    67.83000000    20.90000000
   H     61.29000000    67.65000000    18.85000000
   H     62.47000000    68.95000000    18.88000000
   N     63.33000000    64.70000000    17.32000000
   C     63.32000000    63.39000000    16.70000000
   C     63.43000000    63.45000000    15.19000000
   O     64.05000000    62.56000000    14.62000000
   C     62.02000000    62.63000000    16.97000000
   C     61.74000000    62.68000000    18.46000000
   C     60.39000000    62.07000000    18.83000000
   O     59.49000000    62.07000000    17.96000000
   O     60.09000000    61.57000000    19.94000000
   H     62.44000000    65.17000000    17.34000000
   H     64.20000000    62.82000000    17.02000000
   H     61.98000000    61.60000000    16.60000000
   H     61.26000000    63.31000000    16.58000000
   H     61.81000000    63.68000000    18.90000000
   H     62.52000000    62.20000000    19.05000000
   N     62.93000000    64.50000000    14.53000000
   C     63.22000000    64.73000000    13.13000000
   H     64.26200000    64.48000000    12.93000000
   H     62.57300000    64.10300000    12.51700000
   H     63.04500000    65.77900000    12.89000000
   H     62.57000000    65.24000000    15.12000000
  Ca     57.38000000    61.55000000    19.61000000
   O     55.16000000    62.96000000    18.63000000
   H     55.06000000    63.92000000    18.58000000
   H     54.45000000    62.68000000    19.20000000
   O     55.47000000    59.93000000    19.32000000
   H     54.57000000    59.66000000    19.53000000
   H     55.98000000    59.12000000    19.39000000
   O     55.29000000    62.23000000    21.49000000
   H     54.40000000    62.38000000    21.83000000
   H     55.87000000    62.51000000    22.20000000

Ca 1.00



