%chk=loop3.cluster132.chk
%nprocshared=20
%mem=10GB
%nosave
#b3lyp/svp scf=(tight,noincore,xqc) Test 
#IOP(5/87=12) Density=Current Pop=(MK,readradii) iop(6/33=2) iop(6/42=6)

loop3.cluster132 

   0  1 
   C     39.26000000    11.20000000    -2.11000000
   C     38.52000000    11.78000000    -3.31000000
   O     38.09000000    11.01000000    -4.17000000
   H     40.16400000    11.78000000    -1.92600000
   H     38.61700000    11.24200000    -1.23100000
   H     39.52900000    10.16400000    -2.31500000
   N     38.26000000    13.09000000    -3.28000000
   C     37.94000000    13.95000000    -4.40000000
   C     36.47000000    13.95000000    -4.78000000
   O     35.66000000    13.48000000    -3.98000000
   C     38.52000000    15.31000000    -4.02000000
   C     38.30000000    16.29000000    -5.17000000
   O     37.40000000    17.15000000    -5.12000000
   O     38.95000000    16.26000000    -6.24000000
   H     38.57000000    13.59000000    -2.46000000
   H     38.63000000    13.61000000    -5.17000000
   H     39.59000000    15.14000000    -3.87000000
   H     37.90000000    15.63000000    -3.18000000
   N     36.09000000    14.48000000    -5.95000000
   C     34.75000000    14.80000000    -6.39000000
   C     33.97000000    15.61000000    -5.37000000
   O     32.74000000    15.55000000    -5.31000000
   C     33.94000000    13.58000000    -6.83000000
   C     34.48000000    12.65000000    -7.91000000
   C     34.70000000    13.46000000    -9.19000000
   C     35.04000000    12.87000000   -10.55000000
   N     34.66000000    13.81000000   -11.62000000
   H     36.83000000    14.89000000    -6.50000000
   H     34.88000000    15.47000000    -7.24000000
   H     32.89000000    13.80000000    -7.06000000
   H     33.82000000    12.97000000    -5.94000000
   H     33.80000000    11.83000000    -8.12000000
   H     35.47000000    12.32000000    -7.61000000
   H     35.60000000    14.04000000    -8.99000000
   H     33.84000000    14.12000000    -9.31000000
   H     34.46000000    11.97000000   -10.76000000
   H     36.09000000    12.58000000   -10.56000000
   H     35.30000000    14.59000000   -11.54000000
   H     34.58000000    13.36000000   -12.52000000
   H     33.73000000    14.14000000   -11.38000000
   N     34.74000000    16.32000000    -4.54000000
   C     34.30000000    17.16000000    -3.44000000
   C     35.04000000    18.47000000    -3.19000000
   O     35.98000000    18.52000000    -2.41000000
   C     34.33000000    16.28000000    -2.20000000
   C     33.68000000    16.95000000    -0.99000000
   O     32.91000000    17.91000000    -1.22000000
   O     33.75000000    16.45000000     0.16000000
   H     35.72000000    16.39000000    -4.76000000
   H     33.29000000    17.54000000    -3.55000000
   H     35.34000000    16.06000000    -1.85000000
   H     33.82000000    15.33000000    -2.36000000
   N     34.53000000    19.54000000    -3.80000000
   C     34.77000000    20.93000000    -3.47000000
   C     34.09000000    21.47000000    -2.22000000
   O     32.98000000    21.03000000    -1.93000000
   H     33.63000000    19.48000000    -4.26000000
   H     34.50000000    21.58000000    -4.30000000
   H     35.86000000    20.98000000    -3.40000000
   N     34.73000000    22.34000000    -1.45000000
   C     34.20000000    22.83000000    -0.19000000
   C     34.71000000    24.25000000     0.04000000
   O     34.63000000    24.82000000     1.13000000
   C     34.51000000    21.94000000     1.01000000
   C     33.96000000    20.53000000     0.85000000
   N     34.80000000    19.53000000     0.56000000
   O     32.75000000    20.33000000     0.93000000
   H     35.62000000    22.71000000    -1.76000000
   H     33.13000000    22.85000000    -0.34000000
   H     33.99000000    22.34000000     1.89000000
   H     35.57000000    21.92000000     1.25000000
   H     35.76000000    19.75000000     0.32000000
   H     34.42000000    18.72000000     0.09000000
   N     35.29000000    24.89000000    -0.98000000
   C     35.94000000    26.18000000    -0.90000000
   C     37.10000000    26.22000000     0.08000000
   O     37.84000000    25.24000000     0.16000000
   H     35.24000000    24.55000000    -1.93000000
   H     35.12000000    26.86000000    -0.64000000
   H     36.31000000    26.45000000    -1.89000000
   N     37.12000000    27.33000000     0.82000000
   C     37.84000000    27.45000000     2.07000000
   C     37.38000000    26.51000000     3.17000000
   O     37.47000000    26.87000000     4.34000000
   C     39.36000000    27.45000000     1.86000000
   C     40.20000000    27.85000000     3.06000000
   C     40.39000000    29.19000000     3.39000000
   C     40.78000000    26.78000000     3.76000000
   C     41.14000000    29.53000000     4.52000000
   C     41.65000000    27.18000000     4.78000000
   C     41.81000000    28.51000000     5.22000000
   O     42.62000000    28.88000000     6.26000000
   H     36.37000000    27.97000000     0.57000000
   H     37.58000000    28.44000000     2.45000000
   H     39.51000000    28.15000000     1.04000000
   H     39.60000000    26.45000000     1.53000000
   H     39.81000000    29.92000000     2.84000000
   H     40.58000000    25.79000000     3.40000000
   H     41.25000000    30.55000000     4.85000000
   H     42.37000000    26.48000000     5.17000000
   H     43.19000000    28.16000000     6.52000000
   N     36.96000000    25.28000000     2.87000000
   C     36.23000000    24.35000000     3.70000000
   C     34.89000000    24.89000000     4.20000000
   O     33.87000000    24.26000000     3.93000000
   C     37.13000000    23.61000000     4.69000000
   C     38.26000000    22.83000000     4.01000000
   C     36.25000000    22.67000000     5.51000000
   C     39.20000000    22.08000000     4.94000000
   H     37.06000000    24.98000000     1.91000000
   H     35.88000000    23.57000000     3.02000000
   H     37.68000000    24.30000000     5.33000000
   H     38.87000000    23.54000000     3.46000000
   H     37.90000000    22.05000000     3.34000000
   H     36.77000000    22.29000000     6.39000000
   H     35.46000000    23.31000000     5.88000000
   H     35.79000000    21.87000000     4.92000000
   H     39.74000000    22.74000000     5.63000000
   H     38.62000000    21.39000000     5.55000000
   H     39.95000000    21.57000000     4.34000000
   N     34.82000000    26.04000000     4.86000000
   C     33.65000000    26.78000000     5.29000000
   C     32.59000000    25.96000000     6.01000000
   O     31.40000000    26.26000000     6.04000000
   C     34.24000000    27.87000000     6.18000000
   O     35.08000000    28.80000000     5.53000000
   H     35.71000000    26.49000000     5.03000000
   H     33.19000000    27.31000000     4.46000000
   H     34.75000000    27.30000000     6.96000000
   H     33.37000000    28.40000000     6.56000000
   H     35.75000000    29.13000000     6.13000000
   N     33.05000000    24.94000000     6.73000000
   C     32.20000000    24.01000000     7.44000000
   C     31.07000000    23.44000000     6.60000000
   O     30.05000000    22.99000000     7.14000000
   C     31.77000000    24.52000000     8.81000000
   H     34.04000000    24.80000000     6.82000000
   H     32.93000000    23.24000000     7.70000000
   H     32.56000000    24.76000000     9.52000000
   H     31.13000000    25.40000000     8.69000000
   H     31.36000000    23.73000000     9.44000000
   N     31.29000000    23.29000000     5.29000000
   C     30.30000000    22.67000000     4.43000000
   C     30.10000000    21.17000000     4.61000000
   O     31.02000000    20.37000000     4.78000000
   C     30.75000000    22.84000000     2.98000000
   H     32.10000000    23.63000000     4.80000000
   H     29.37000000    23.22000000     4.56000000
   H     29.84000000    22.58000000     2.44000000
   H     30.96000000    23.90000000     2.85000000
   H     31.67000000    22.33000000     2.71000000
   N     28.85000000    20.75000000     4.41000000
   C     28.43000000    19.36000000     4.40000000
   C     29.00000000    18.46000000     5.49000000
   O     29.65000000    17.47000000     5.18000000
   C     28.60000000    18.85000000     2.97000000
   C     27.82000000    19.59000000     1.89000000
   C     27.71000000    18.84000000     0.57000000
   O     28.80000000    18.71000000    -0.03000000
   O     26.68000000    18.22000000     0.21000000
   H     28.17000000    21.45000000     4.16000000
   H     27.35000000    19.29000000     4.54000000
   H     28.19000000    17.84000000     2.98000000
   H     29.65000000    18.80000000     2.68000000
   H     28.43000000    20.45000000     1.64000000
   H     26.80000000    19.81000000     2.22000000
   N     28.66000000    18.78000000     6.74000000
   C     29.19000000    18.10000000     7.91000000
   H     30.08600000    18.61600000     8.25400000
   H     28.44200000    18.10400000     8.70300000
   H     29.44000000    17.07100000     7.65100000
   H     28.15000000    19.65000000     6.76000000
  Ca     31.00000000    19.57000000    -0.90000000
   O     31.26000000    17.27000000     1.06000000
   H     32.11000000    16.97000000     0.74000000
   H     31.44000000    17.63000000     1.93000000
   O     29.41000000    20.78000000    -2.92000000
   H     29.39000000    20.86000000    -3.87000000
   H     28.49000000    20.79000000    -2.65000000
   O     29.57000000    17.51000000    -2.86900000
   H     29.81000000    16.63000000    -3.14000000
   H     28.66000000    17.45000000    -2.59000000
   O     31.50000000    19.28000000    -3.85000000
   H     30.78000000    18.66000000    -3.78000000
   H     31.52000000    19.53000000    -4.77000000
   O     30.32000000    22.19000000    -0.35000000
   H     30.63000000    23.09000000    -0.33000000
   H     29.38000000    22.26000000    -0.20000000

Ca 1.00



