%chk=loop3.cluster14.chk
%nprocshared=20
%mem=10GB
%nosave
#b3lyp/svp scf=(tight,noincore,xqc) Test 
#IOP(5/87=12) Density=Current Pop=(MK,readradii) iop(6/33=2) iop(6/42=6)

loop3.cluster14 

   0  1 
   C     64.48000000    52.13000000    23.42000000
   C     63.81000000    50.84000000    23.88000000
   O     64.22000000    49.76000000    23.47000000
   H     65.45900000    51.90000000    23.00000000
   H     63.86300000    52.61000000    22.66000000
   H     64.59900000    52.80200000    24.27000000
   N     62.74000000    50.91000000    24.68000000
   C     62.02000000    49.78000000    25.22000000
   C     61.00000000    49.34000000    24.19000000
   O     59.81000000    49.61000000    24.38000000
   C     61.35000000    50.20000000    26.53000000
   C     60.47000000    49.12000000    27.14000000
   O     59.38000000    49.45000000    27.65000000
   O     60.79000000    47.92000000    27.08000000
   H     62.35000000    51.79000000    24.99000000
   H     62.70000000    48.94000000    25.37000000
   H     60.82000000    51.15000000    26.58000000
   H     62.17000000    50.19000000    27.25000000
   N     61.35000000    48.56000000    23.17000000
   C     60.59000000    48.29000000    21.96000000
   C     59.77000000    47.01000000    21.94000000
   O     58.84000000    46.92000000    21.14000000
   C     61.55000000    48.51000000    20.80000000
   C     62.58000000    47.38000000    20.71000000
   C     63.53000000    47.42000000    19.52000000
   C     64.54000000    46.28000000    19.55000000
   N     65.38000000    46.07000000    20.74000000
   H     62.30000000    48.22000000    23.12000000
   H     59.85000000    49.09000000    21.99000000
   H     61.93000000    49.53000000    20.85000000
   H     61.00000000    48.51000000    19.86000000
   H     62.13000000    46.39000000    20.74000000
   H     63.13000000    47.46000000    21.64000000
   H     64.00000000    48.40000000    19.35000000
   H     62.90000000    47.23000000    18.65000000
   H     65.24000000    46.59000000    18.77000000
   H     64.18000000    45.29000000    19.26000000
   H     64.88000000    45.59000000    21.47000000
   H     66.20000000    45.50000000    20.59000000
   H     65.67000000    46.97000000    21.11000000
   N     60.07000000    46.05000000    22.81000000
   C     59.08000000    45.10000000    23.27000000
   C     58.16000000    45.56000000    24.39000000
   O     57.12000000    44.96000000    24.67000000
   C     59.73000000    43.73000000    23.47000000
   C     61.03000000    43.65000000    24.25000000
   O     61.32000000    44.58000000    25.04000000
   O     61.80000000    42.69000000    24.04000000
   H     60.71000000    46.33000000    23.53000000
   H     58.40000000    44.87000000    22.44000000
   H     59.94000000    43.24000000    22.52000000
   H     59.02000000    43.11000000    24.02000000
   N     58.54000000    46.69000000    24.98000000
   C     57.66000000    47.68000000    25.56000000
   C     57.09000000    47.33000000    26.93000000
   O     56.08000000    47.92000000    27.32000000
   H     59.48000000    46.95000000    24.73000000
   H     56.78000000    47.72000000    24.91000000
   H     58.15000000    48.65000000    25.59000000
   N     57.65000000    46.34000000    27.63000000
   C     57.32000000    46.03000000    29.00000000
   C     57.48000000    47.10000000    30.07000000
   O     56.91000000    46.82000000    31.12000000
   C     58.01000000    44.71000000    29.36000000
   C     59.48000000    44.92000000    29.71000000
   N     59.91000000    44.39000000    30.86000000
   O     60.26000000    45.46000000    28.93000000
   H     58.52000000    45.97000000    27.27000000
   H     56.26000000    45.75000000    28.99000000
   H     57.83000000    44.10000000    28.48000000
   H     57.53000000    44.23000000    30.21000000
   H     59.30000000    43.81000000    31.42000000
   H     60.89000000    44.38000000    31.10000000
   N     58.18000000    48.20000000    29.79000000
   C     58.53000000    49.23000000    30.75000000
   C     59.92000000    49.14000000    31.36000000
   O     60.17000000    49.68000000    32.43000000
   H     58.56000000    48.37000000    28.87000000
   H     57.84000000    49.18000000    31.59000000
   H     58.46000000    50.17000000    30.21000000
   N     60.90000000    48.57000000    30.65000000
   C     62.32000000    48.58000000    30.98000000
   C     63.21000000    48.58000000    29.75000000
   O     63.17000000    47.64000000    28.96000000
   C     62.70000000    47.41000000    31.88000000
   C     62.22000000    47.48000000    33.32000000
   C     62.85000000    48.40000000    34.16000000
   C     61.07000000    46.81000000    33.75000000
   C     62.32000000    48.61000000    35.44000000
   C     60.56000000    47.03000000    35.03000000
   C     61.17000000    47.95000000    35.91000000
   O     60.78000000    47.96000000    37.22000000
   H     60.64000000    48.08000000    29.81000000
   H     62.55000000    49.51000000    31.51000000
   H     63.78000000    47.28000000    31.89000000
   H     62.25000000    46.48000000    31.55000000
   H     63.74000000    48.93000000    33.85000000
   H     60.50000000    46.28000000    33.00000000
   H     62.76000000    49.29000000    36.15000000
   H     59.71000000    46.44000000    35.34000000
   H     59.93000000    47.52000000    37.29000000
   N     64.19000000    49.48000000    29.73000000
   C     65.25000000    49.45000000    28.74000000
   C     66.24000000    48.44000000    29.29000000
   O     66.78000000    48.61000000    30.39000000
   C     65.81000000    50.85000000    28.51000000
   C     64.75000000    51.83000000    28.00000000
   C     66.96000000    50.97000000    27.52000000
   C     65.05000000    53.32000000    27.97000000
   H     64.14000000    50.19000000    30.45000000
   H     64.89000000    49.02000000    27.81000000
   H     66.18000000    51.39000000    29.38000000
   H     63.84000000    51.69000000    28.60000000
   H     64.34000000    51.47000000    27.06000000
   H     67.84000000    50.48000000    27.93000000
   H     66.64000000    50.54000000    26.57000000
   H     67.40000000    51.96000000    27.38000000
   H     65.30000000    53.60000000    28.99000000
   H     65.93000000    53.63000000    27.40000000
   H     64.25000000    53.88000000    27.50000000
   N     66.60000000    47.41000000    28.52000000
   C     67.78000000    46.62000000    28.82000000
   C     69.11000000    47.11000000    28.27000000
   O     69.18000000    48.04000000    27.47000000
   C     67.65000000    45.19000000    28.30000000
   O     67.92000000    45.07000000    26.92000000
   H     66.13000000    47.24000000    27.64000000
   H     67.79000000    46.53000000    29.91000000
   H     66.64000000    44.88000000    28.58000000
   H     68.36000000    44.56000000    28.83000000
   H     67.77000000    44.16000000    26.67000000
   N     70.20000000    46.51000000    28.73000000
   C     71.52000000    46.81000000    28.20000000
   C     71.65000000    46.51000000    26.72000000
   O     72.43000000    47.17000000    26.03000000
   C     72.46000000    45.92000000    29.01000000
   H     70.19000000    45.83000000    29.48000000
   H     71.72000000    47.85000000    28.47000000
   H     72.22000000    45.91000000    30.07000000
   H     72.73000000    44.96000000    28.58000000
   H     73.40000000    46.45000000    29.17000000
   N     70.90000000    45.56000000    26.18000000
   C     70.96000000    45.33000000    24.75000000
   C     70.13000000    46.39000000    24.03000000
   O     70.32000000    46.79000000    22.88000000
   C     70.84000000    43.84000000    24.47000000
   H     70.28000000    44.96000000    26.71000000
   H     71.96000000    45.54000000    24.35000000
   H     70.91000000    43.60000000    23.41000000
   H     71.39000000    43.21000000    25.18000000
   H     69.79000000    43.63000000    24.67000000
   N     69.04000000    46.81000000    24.66000000
   C     68.17000000    47.79000000    24.05000000
   C     68.79000000    49.16000000    23.78000000
   O     68.51000000    49.84000000    22.79000000
   C     66.82000000    47.94000000    24.76000000
   C     65.85000000    46.85000000    24.31000000
   C     64.54000000    46.94000000    25.08000000
   O     63.42000000    46.68000000    24.58000000
   O     64.55000000    47.15000000    26.31000000
   H     68.76000000    46.49000000    25.58000000
   H     67.89000000    47.38000000    23.08000000
   H     66.43000000    48.95000000    24.69000000
   H     66.96000000    47.75000000    25.82000000
   H     66.22000000    45.85000000    24.53000000
   H     65.68000000    46.88000000    23.24000000
   N     69.73000000    49.56000000    24.63000000
   C     70.52000000    50.76000000    24.41000000
   H     71.47400000    50.48900000    23.95700000
   H     69.98100000    51.43400000    23.74400000
   H     70.70000000    51.25700000    25.36300000
   H     69.84000000    48.93000000    25.42000000
  Ca     62.41000000    45.73000000    27.08000000
   O     63.93000000    43.73000000    26.02000000
   H     63.59000000    42.86000000    25.82000000
   H     64.77000000    43.58000000    26.44000000
   O     61.55000000    42.94000000    27.78000000
   H     61.81000000    42.36000000    27.07000000
   H     60.86000000    42.47000000    28.24000000
   O     64.06000000    44.89000000    29.36000000
   H     64.02000000    43.98000000    29.63000000
   H     64.31000000    45.37000000    30.16000000

Ca 1.00



