%chk=loop3.cluster88.chk
%nprocshared=20
%mem=10GB
%nosave
#b3lyp/svp scf=(tight,noincore,xqc) Test 
#IOP(5/87=12) Density=Current Pop=(MK,readradii) iop(6/33=2) iop(6/42=6)

loop3.cluster88 

   0  1 
   C     92.17000000    75.35000000    22.63000000
   C     93.67000000    75.17000000    22.44000000
   O     94.18000000    74.06000000    22.60000000
   H     91.64200000    74.52700000    22.14800000
   H     91.93600000    75.35600000    23.69500000
   H     91.85700000    76.29400000    22.18300000
   N     94.39000000    76.22000000    22.04000000
   C     95.81000000    76.03000000    21.86000000
   C     96.60000000    75.81000000    23.14000000
   O     97.10000000    74.71000000    23.36000000
   C     96.49000000    77.13000000    21.04000000
   C     96.40000000    78.57000000    21.50000000
   O     95.41000000    78.83000000    22.23000000
   O     97.02000000    79.44000000    20.85000000
   H     93.94000000    77.13000000    21.98000000
   H     95.87000000    75.11000000    21.27000000
   H     96.04000000    77.10000000    20.05000000
   H     97.55000000    76.88000000    20.90000000
   N     96.61000000    76.84000000    23.99000000
   C     97.41000000    76.80000000    25.20000000
   C     98.91000000    76.81000000    24.95000000
   O     99.42000000    77.79000000    24.42000000
   C     96.98000000    77.98000000    26.05000000
   C     97.68000000    77.93000000    27.40000000
   C     97.06000000    78.91000000    28.39000000
   C     95.88000000    78.24000000    29.08000000
   N     95.53000000    78.94000000    30.33000000
   H     96.16000000    77.71000000    23.76000000
   H     97.24000000    75.87000000    25.75000000
   H     95.95000000    77.87000000    26.40000000
   H     97.01000000    78.91000000    25.48000000
   H     98.74000000    78.16000000    27.30000000
   H     97.56000000    76.91000000    27.75000000
   H     96.68000000    79.85000000    27.98000000
   H     97.87000000    79.06000000    29.10000000
   H     96.07000000    77.21000000    29.40000000
   H     95.02000000    78.22000000    28.41000000
   H     94.79000000    78.40000000    30.75000000
   H     96.39000000    79.09000000    30.84000000
   H     95.11000000    79.83000000    30.08000000
   N     99.70000000    75.79000000    25.32000000
   C    101.14000000    75.86000000    25.50000000
   C    101.77000000    75.01000000    24.41000000
   O    103.00000000    74.91000000    24.38000000
   C    101.44000000    75.51000000    26.96000000
   C    100.78000000    74.20000000    27.38000000
   O     99.54000000    74.25000000    27.54000000
   O    101.50000000    73.20000000    27.60000000
   H     99.16000000    75.13000000    25.86000000
   H    101.57000000    76.81000000    25.20000000
   H    101.15000000    76.28000000    27.67000000
   H    102.51000000    75.56000000    27.17000000
   N    101.00000000    74.39000000    23.53000000
   C    101.42000000    73.58000000    22.40000000
   C    100.47000000    73.54000000    21.21000000
   O     99.73000000    74.49000000    20.95000000
   H    100.04000000    74.70000000    23.51000000
   H    101.68000000    72.56000000    22.70000000
   H    102.43000000    73.87000000    22.12000000
   N    100.58000000    72.48000000    20.40000000
   C    101.57000000    71.43000000    20.29000000
   C    101.05000000    70.22000000    19.52000000
   O    100.38000000    70.39000000    18.51000000
   C    102.75000000    72.03000000    19.53000000
   C    103.86000000    71.00000000    19.35000000
   N    104.43000000    70.41000000    20.40000000
   O    104.12000000    70.53000000    18.24000000
   H     99.91000000    72.55000000    19.64000000
   H    101.89000000    71.05000000    21.25000000
   H    103.18000000    72.85000000    20.10000000
   H    102.35000000    72.31000000    18.56000000
   H    104.41000000    70.86000000    21.31000000
   H    104.97000000    69.58000000    20.22000000
   N    101.26000000    68.95000000    19.88000000
   C    101.74000000    68.40000000    21.13000000
   C    100.65000000    68.06000000    22.15000000
   O     99.61000000    68.70000000    22.26000000
   H    100.74000000    68.31000000    19.29000000
   H    102.47000000    69.08000000    21.57000000
   H    102.09000000    67.39000000    20.92000000
   N    100.79000000    66.92000000    22.83000000
   C     99.99000000    66.33000000    23.88000000
   C    101.00000000    66.01000000    24.96000000
   O    102.18000000    65.77000000    24.71000000
   C     99.18000000    65.16000000    23.32000000
   C     98.02000000    65.45000000    22.40000000
   C     96.82000000    65.97000000    22.90000000
   C     98.14000000    65.21000000    21.03000000
   C     95.82000000    66.33000000    22.00000000
   C     97.18000000    65.59000000    20.08000000
   C     95.99000000    66.11000000    20.61000000
   O     95.06000000    66.61000000    19.75000000
   H    101.68000000    66.46000000    22.71000000
   H     99.28000000    67.07000000    24.26000000
   H     98.75000000    64.58000000    24.14000000
   H     99.89000000    64.54000000    22.77000000
   H     96.59000000    66.01000000    23.96000000
   H     99.10000000    64.88000000    20.65000000
   H     94.83000000    66.65000000    22.29000000
   H     97.39000000    65.49000000    19.03000000
   H     95.24000000    66.41000000    18.83000000
   N    100.50000000    65.77000000    26.18000000
   C    101.28000000    65.33000000    27.32000000
   C    100.99000000    63.88000000    27.70000000
   O    101.34000000    63.43000000    28.79000000
   C    101.14000000    66.38000000    28.41000000
   C     99.86000000    66.40000000    29.24000000
   C    102.31000000    66.42000000    29.39000000
   C     99.62000000    67.82000000    29.77000000
   H     99.57000000    66.10000000    26.39000000
   H    102.32000000    65.36000000    27.00000000
   H    101.16000000    67.35000000    27.92000000
   H     99.98000000    65.75000000    30.11000000
   H     98.97000000    66.08000000    28.70000000
   H    103.27000000    66.49000000    28.86000000
   H    102.38000000    67.22000000    30.12000000
   H    102.42000000    65.46000000    29.89000000
   H    100.44000000    68.09000000    30.43000000
   H     99.59000000    68.42000000    28.86000000
   H     98.65000000    67.93000000    30.26000000
   N    100.21000000    63.17000000    26.89000000
   C     99.61000000    61.86000000    27.06000000
   C     98.70000000    61.72000000    28.27000000
   O     98.70000000    60.67000000    28.91000000
   C     98.88000000    61.51000000    25.77000000
   O     99.58000000    62.03000000    24.67000000
   H     99.99000000    63.65000000    26.03000000
   H    100.38000000    61.12000000    27.29000000
   H     97.85000000    61.86000000    25.87000000
   H     98.83000000    60.42000000    25.72000000
   H     99.04000000    61.99000000    23.88000000
   N     98.07000000    62.84000000    28.62000000
   C     97.00000000    62.81000000    29.60000000
   C     96.10000000    64.03000000    29.46000000
   O     96.59000000    65.07000000    29.03000000
   C     97.64000000    62.66000000    30.98000000
   H     98.28000000    63.70000000    28.14000000
   H     96.27000000    62.01000000    29.44000000
   H     98.36000000    63.47000000    31.10000000
   H     96.90000000    62.87000000    31.75000000
   H     98.12000000    61.69000000    31.08000000
   N     94.82000000    63.94000000    29.82000000
   C     93.93000000    65.06000000    30.09000000
   C     94.08000000    66.43000000    29.45000000
   O     94.00000000    67.48000000    30.08000000
   C     93.72000000    65.07000000    31.60000000
   H     94.34000000    63.07000000    30.00000000
   H     93.04000000    64.71000000    29.57000000
   H     93.31000000    64.17000000    32.05000000
   H     94.68000000    65.31000000    32.07000000
   H     93.09000000    65.93000000    31.82000000
   N     94.09000000    66.49000000    28.12000000
   C     93.94000000    67.67000000    27.29000000
   C     92.69000000    67.62000000    26.43000000
   O     92.25000000    68.67000000    25.97000000
   C     95.09000000    67.90000000    26.32000000
   C     96.33000000    68.65000000    26.80000000
   C     95.99000000    70.11000000    27.11000000
   O     95.72000000    70.88000000    26.16000000
   O     96.03000000    70.55000000    28.27000000
   H     94.31000000    65.63000000    27.64000000
   H     93.88000000    68.56000000    27.92000000
   H     94.77000000    68.52000000    25.48000000
   H     95.45000000    67.00000000    25.80000000
   H     97.01000000    68.64000000    25.95000000
   H     96.84000000    68.22000000    27.66000000
   N     92.17000000    66.43000000    26.10000000
   C     90.94000000    66.11000000    25.42000000
   H     90.19400000    66.87400000    25.64000000
   H     91.11700000    66.07500000    24.34500000
   H     90.57700000    65.14000000    25.76100000
   H     92.81000000    65.69000000    26.35000000
  Ca     95.85000000    72.09000000    24.09000000
   O     98.05000000    72.92000000    25.43000000
   H     98.82000000    72.36000000    25.32000000
   H     98.24000000    73.43000000    26.22000000
   O     93.08000000    71.64000000    25.10000000
   H     92.91000000    72.09000000    25.92000000
   H     93.10000000    70.71000000    25.33000000
   O     94.46000000    70.10000000    22.86000000
   H     94.80000000    69.95000000    21.98000000
   H     93.52000000    69.97000000    22.78000000
   O     97.94000000    70.33000000    23.98000000
   H     97.91000000    69.82000000    23.17000000
   H     98.83000000    70.20000000    24.31000000
   O     94.91000000    74.22000000    25.52000000
   H     94.20000000    74.86000000    25.54000000
   H     95.24000000    74.20000000    26.42000000
   O     96.60000000    72.16000000    21.60000000
   H     96.69000000    71.56000000    20.86000000
   H     96.65000000    73.03000000    21.20000000

Ca 1.00



