%chk=CaMKII_loop3_18.0.chk
%nprocshared=48
%mem=10GB
%nosave
#b3lyp/svp scf=(tight,noincore) Test 
#IOP(5/87=12) Density=Current Pop=(MK,readradii) iop(6/33=2) iop(6/42=6)

CaMKII_loop3_18.0 

   0   1
   C     78.46000000    55.18000000    16.70000000
   C     78.52000000    53.90000000    15.87000000
   O     79.54000000    53.68000000    15.23000000
   H     77.42400000    55.50800000    16.78700000
   H     78.86400000    54.98800000    17.69400000
   H     79.04700000    55.95800000    16.21200000
   N     77.47000000    53.07000000    15.86000000
   C     77.41000000    51.87000000    15.07000000
   C     77.09000000    52.19000000    13.62000000
   O     76.10000000    52.87000000    13.35000000
   C     76.42000000    50.86000000    15.64000000
   C     76.09000000    49.67000000    14.75000000
   O     75.02000000    49.07000000    14.98000000
   O     76.89000000    49.29000000    13.87000000
   H     76.69000000    53.33000000    16.45000000
   H     78.39000000    51.40000000    15.17000000
   H     75.53000000    51.48000000    15.76000000
   H     76.76000000    50.55000000    16.63000000
   N     78.01000000    51.88000000    12.70000000
   C     77.92000000    52.37000000    11.34000000
   C     77.05000000    51.53000000    10.42000000
   O     76.87000000    51.90000000     9.26000000
   C     79.40000000    52.44000000    10.95000000
   C     79.71000000    53.29000000     9.72000000
   C     81.22000000    53.45000000     9.55000000
   C     81.60000000    54.31000000     8.35000000
   N     81.33000000    53.55000000     7.12000000
   H     78.82000000    51.32000000    12.95000000
   H     77.51000000    53.38000000    11.27000000
   H     79.66000000    51.39000000    10.83000000
   H     79.94000000    52.84000000    11.81000000
   H     79.23000000    54.26000000     9.83000000
   H     79.14000000    52.80000000     8.93000000
   H     81.67000000    52.46000000     9.43000000
   H     81.62000000    53.97000000    10.42000000
   H     82.63000000    54.64000000     8.49000000
   H     80.92000000    55.16000000     8.29000000
   H     81.72000000    54.13000000     6.39000000
   H     81.81000000    52.68000000     6.93000000
   H     80.40000000    53.44000000     6.76000000
   N     76.39000000    50.51000000    10.98000000
   C     75.72000000    49.52000000    10.16000000
   C     74.45000000    48.87000000    10.68000000
   O     73.93000000    47.93000000    10.08000000
   C     76.74000000    48.46000000     9.73000000
   C     77.56000000    47.96000000    10.91000000
   O     78.53000000    48.65000000    11.27000000
   O     77.19000000    46.92000000    11.50000000
   H     76.55000000    50.33000000    11.96000000
   H     75.40000000    50.03000000     9.25000000
   H     77.50000000    48.93000000     9.11000000
   H     76.31000000    47.66000000     9.14000000
   N     73.97000000    49.26000000    11.86000000
   C     72.84000000    48.72000000    12.60000000
   C     72.93000000    47.25000000    13.01000000
   O     71.90000000    46.61000000    12.85000000
   H     74.58000000    49.86000000    12.40000000
   H     71.87000000    48.82000000    12.12000000
   H     72.79000000    49.29000000    13.53000000
   N     74.07000000    46.82000000    13.55000000
   C     74.25000000    45.44000000    13.98000000
   C     74.16000000    45.29000000    15.49000000
   O     74.38000000    44.17000000    15.96000000
   C     75.44000000    44.81000000    13.27000000
   C     76.77000000    44.87000000    14.02000000
   N     77.38000000    43.75000000    14.39000000
   O     77.27000000    45.98000000    14.23000000
   H     74.82000000    47.49000000    13.65000000
   H     73.41000000    44.87000000    13.57000000
   H     75.60000000    45.33000000    12.33000000
   H     75.20000000    43.76000000    13.09000000
   H     76.97000000    42.85000000    14.17000000
   H     78.32000000    43.72000000    14.76000000
   N     73.87000000    46.37000000    16.22000000
   C     74.03000000    46.42000000    17.66000000
   C     75.44000000    46.52000000    18.24000000
   O     75.57000000    46.34000000    19.45000000
   H     73.64000000    47.21000000    15.70000000
   H     73.60000000    45.51000000    18.07000000
   H     73.51000000    47.29000000    18.05000000
   N     76.55000000    46.63000000    17.50000000
   C     77.91000000    46.60000000    17.99000000
   C     78.71000000    47.76000000    17.41000000
   O     78.64000000    48.08000000    16.22000000
   C     78.56000000    45.24000000    17.75000000
   C     77.88000000    44.23000000    18.64000000
   C     78.29000000    44.04000000    19.96000000
   C     76.85000000    43.47000000    18.07000000
   C     77.60000000    43.14000000    20.79000000
   C     76.18000000    42.59000000    18.93000000
   C     76.52000000    42.38000000    20.28000000
   O     75.80000000    41.57000000    21.10000000
   H     76.48000000    46.83000000    16.51000000
   H     77.84000000    46.69000000    19.07000000
   H     79.56000000    45.35000000    18.17000000
   H     78.58000000    45.00000000    16.68000000
   H     79.11000000    44.62000000    20.36000000
   H     76.64000000    43.52000000    17.01000000
   H     77.98000000    42.92000000    21.77000000
   H     75.39000000    41.97000000    18.56000000
   H     75.16000000    41.12000000    20.54000000
   N     79.49000000    48.46000000    18.23000000
   C     80.46000000    49.43000000    17.76000000
   C     81.82000000    48.73000000    17.74000000
   O     82.19000000    47.99000000    18.65000000
   C     80.48000000    50.60000000    18.73000000
   C     79.12000000    51.10000000    19.23000000
   C     81.28000000    51.77000000    18.17000000
   C     79.27000000    52.06000000    20.41000000
   H     79.43000000    48.23000000    19.21000000
   H     80.19000000    49.73000000    16.75000000
   H     81.00000000    50.21000000    19.60000000
   H     78.56000000    50.29000000    19.70000000
   H     78.51000000    51.37000000    18.36000000
   H     82.27000000    51.43000000    17.84000000
   H     80.77000000    52.18000000    17.30000000
   H     81.43000000    52.66000000    18.79000000
   H     79.96000000    52.88000000    20.25000000
   H     78.30000000    52.50000000    20.64000000
   H     79.56000000    51.53000000    21.32000000
   N     82.69000000    49.12000000    16.81000000
   C     84.08000000    48.72000000    16.79000000
   C     85.02000000    49.92000000    16.69000000
   O     84.61000000    51.06000000    16.53000000
   C     84.34000000    47.61000000    15.78000000
   O     84.04000000    47.89000000    14.43000000
   H     82.40000000    49.87000000    16.19000000
   H     84.41000000    48.33000000    17.75000000
   H     83.80000000    46.74000000    16.16000000
   H     85.40000000    47.36000000    15.85000000
   H     83.10000000    48.04000000    14.33000000
   N     86.31000000    49.76000000    16.97000000
   C     87.22000000    50.88000000    17.16000000
   C     87.21000000    51.77000000    15.93000000
   O     87.01000000    52.99000000    15.97000000
   C     88.63000000    50.31000000    17.36000000
   H     86.66000000    48.82000000    17.03000000
   H     86.90000000    51.48000000    18.00000000
   H     88.80000000    49.93000000    18.36000000
   H     88.86000000    49.50000000    16.67000000
   H     89.35000000    51.13000000    17.27000000
   N     87.28000000    51.16000000    14.75000000
   C     87.22000000    51.85000000    13.48000000
   C     85.95000000    52.65000000    13.23000000
   O     85.92000000    53.73000000    12.64000000
   C     87.47000000    50.82000000    12.38000000
   H     87.64000000    50.21000000    14.71000000
   H     88.06000000    52.53000000    13.35000000
   H     86.91000000    49.92000000    12.61000000
   H     87.36000000    51.18000000    11.35000000
   H     88.51000000    50.51000000    12.55000000
   N     84.86000000    52.20000000    13.86000000
   C     83.55000000    52.80000000    13.90000000
   C     83.49000000    54.02000000    14.81000000
   O     83.05000000    55.05000000    14.31000000
   C     82.40000000    51.86000000    14.28000000
   C     82.40000000    50.58000000    13.45000000
   C     81.31000000    49.65000000    13.98000000
   O     81.55000000    48.43000000    14.07000000
   O     80.14000000    50.08000000    14.02000000
   H     84.95000000    51.37000000    14.43000000
   H     83.47000000    53.26000000    12.91000000
   H     81.41000000    52.31000000    14.22000000
   H     82.50000000    51.56000000    15.32000000
   H     83.38000000    50.11000000    13.48000000
   H     82.12000000    50.92000000    12.45000000
   N     84.22000000    53.92000000    15.93000000
   C     84.30000000    55.03000000    16.86000000
   H     84.81500000    55.86500000    16.38500000
   H     83.29400000    55.33900000    17.14600000
   H     84.85200000    54.72200000    17.74800000
   H     84.38000000    52.99000000    16.28000000
  Ca     78.92000000    47.80000000    13.62000000
   O     80.37000000    45.79000000    14.63000000
   H     80.12000000    44.93000000    14.95000000
   H     81.29000000    45.70000000    14.39000000

Ca 1.70



