%chk=CaMKII_loop3_28.0.chk
%nprocshared=48
%mem=10GB
%nosave
#b3lyp/svp scf=(tight,noincore) Test 
#IOP(5/87=12) Density=Current Pop=(MK,readradii) iop(6/33=2) iop(6/42=6)

CaMKII_loop3_28.0 

   0   1
   C     75.72000000    43.64000000    21.20000000
   C     74.45000000    42.88000000    21.58000000
   O     74.39000000    41.66000000    21.45000000
   H     76.53100000    42.93100000    21.03400000
   H     75.54400000    44.21000000    20.28800000
   H     75.99200000    44.32000000    22.00700000
   N     73.40000000    43.60000000    21.98000000
   C     72.11000000    43.01000000    22.28000000
   C     71.27000000    42.67000000    21.05000000
   O     70.27000000    43.32000000    20.77000000
   C     71.39000000    43.80000000    23.37000000
   C     69.99000000    43.27000000    23.66000000
   O     69.84000000    42.04000000    23.76000000
   O     69.10000000    44.12000000    23.87000000
   H     73.45000000    44.60000000    22.10000000
   H     72.18000000    42.05000000    22.80000000
   H     71.31000000    44.80000000    22.94000000
   H     72.03000000    43.87000000    24.26000000
   N     71.56000000    41.50000000    20.48000000
   C     70.94000000    41.18000000    19.22000000
   C     69.46000000    40.86000000    19.35000000
   O     68.64000000    41.50000000    18.68000000
   C     71.74000000    40.04000000    18.59000000
   C     71.39000000    39.59000000    17.17000000
   C     72.22000000    38.44000000    16.61000000
   C     71.86000000    38.20000000    15.15000000
   N     72.56000000    37.00000000    14.66000000
   H     72.43000000    41.06000000    20.76000000
   H     71.02000000    41.97000000    18.47000000
   H     71.57000000    39.15000000    19.20000000
   H     72.76000000    40.41000000    18.51000000
   H     71.56000000    40.40000000    16.46000000
   H     70.32000000    39.40000000    17.12000000
   H     72.04000000    37.48000000    17.10000000
   H     73.29000000    38.66000000    16.61000000
   H     72.15000000    39.03000000    14.49000000
   H     70.78000000    38.09000000    15.03000000
   H     72.54000000    36.85000000    13.66000000
   H     73.53000000    36.86000000    14.92000000
   H     72.07000000    36.19000000    15.00000000
   N     69.04000000    39.90000000    20.18000000
   C     67.66000000    39.55000000    20.42000000
   C     66.78000000    40.68000000    20.92000000
   O     65.56000000    40.53000000    20.79000000
   C     67.56000000    38.29000000    21.28000000
   C     67.94000000    38.38000000    22.76000000
   O     67.99000000    37.30000000    23.40000000
   O     68.27000000    39.46000000    23.27000000
   H     69.77000000    39.38000000    20.65000000
   H     67.17000000    39.28000000    19.48000000
   H     68.26000000    37.63000000    20.77000000
   H     66.57000000    37.85000000    21.24000000
   N     67.36000000    41.81000000    21.32000000
   C     66.66000000    43.03000000    21.69000000
   C     65.96000000    43.03000000    23.04000000
   O     64.80000000    43.41000000    23.14000000
   H     68.36000000    41.81000000    21.40000000
   H     65.92000000    43.25000000    20.92000000
   H     67.31000000    43.90000000    21.57000000
   N     66.60000000    42.47000000    24.07000000
   C     66.03000000    42.19000000    25.37000000
   C     66.54000000    43.06000000    26.51000000
   O     66.05000000    42.85000000    27.62000000
   C     66.09000000    40.69000000    25.61000000
   C     67.22000000    40.29000000    26.55000000
   N     67.03000000    39.34000000    27.48000000
   O     68.35000000    40.77000000    26.53000000
   H     67.42000000    41.97000000    23.76000000
   H     64.97000000    42.42000000    25.28000000
   H     66.07000000    40.03000000    24.73000000
   H     65.25000000    40.53000000    26.27000000
   H     66.12000000    38.90000000    27.48000000
   H     67.72000000    39.19000000    28.19000000
   N     67.52000000    43.93000000    26.26000000
   C     68.03000000    44.96000000    27.14000000
   C     69.33000000    44.60000000    27.83000000
   O     69.82000000    45.29000000    28.72000000
   H     67.78000000    44.08000000    25.29000000
   H     67.39000000    45.32000000    27.95000000
   H     68.18000000    45.82000000    26.47000000
   N     69.98000000    43.51000000    27.40000000
   C     71.17000000    43.02000000    28.07000000
   C     72.18000000    42.48000000    27.06000000
   O     71.79000000    41.82000000    26.10000000
   C     70.74000000    41.95000000    29.07000000
   C     69.73000000    42.31000000    30.13000000
   C     70.20000000    42.71000000    31.39000000
   C     68.36000000    42.17000000    29.88000000
   C     69.26000000    43.17000000    32.32000000
   C     67.46000000    42.75000000    30.77000000
   C     67.90000000    43.29000000    32.00000000
   O     67.01000000    43.80000000    32.90000000
   H     69.47000000    42.93000000    26.75000000
   H     71.61000000    43.83000000    28.65000000
   H     71.61000000    41.52000000    29.56000000
   H     70.33000000    41.12000000    28.50000000
   H     71.24000000    42.64000000    31.68000000
   H     68.06000000    41.89000000    28.88000000
   H     69.56000000    43.23000000    33.36000000
   H     66.38000000    42.71000000    30.75000000
   H     66.12000000    43.70000000    32.55000000
   N     73.47000000    42.59000000    27.40000000
   C     74.60000000    41.86000000    26.86000000
   C     74.93000000    40.65000000    27.72000000
   O     75.27000000    40.81000000    28.89000000
   C     75.74000000    42.84000000    26.65000000
   C     75.35000000    44.16000000    25.99000000
   C     76.84000000    42.19000000    25.81000000
   C     76.39000000    45.28000000    25.96000000
   H     73.61000000    43.14000000    28.23000000
   H     74.26000000    41.47000000    25.90000000
   H     76.12000000    43.11000000    27.63000000
   H     74.54000000    44.62000000    26.57000000
   H     74.99000000    43.90000000    25.00000000
   H     77.14000000    41.30000000    26.36000000
   H     76.51000000    41.93000000    24.81000000
   H     77.80000000    42.70000000    25.85000000
   H     76.79000000    45.42000000    26.96000000
   H     77.19000000    44.99000000    25.27000000
   H     75.99000000    46.23000000    25.63000000
   N     74.79000000    39.44000000    27.18000000
   C     75.35000000    38.21000000    27.71000000
   C     76.77000000    37.94000000    27.24000000
   O     77.18000000    38.54000000    26.25000000
   C     74.37000000    37.08000000    27.39000000
   O     74.33000000    36.82000000    26.01000000
   H     74.53000000    39.40000000    26.20000000
   H     75.42000000    38.35000000    28.78000000
   H     73.38000000    37.32000000    27.78000000
   H     74.69000000    36.16000000    27.89000000
   H     73.68000000    37.40000000    25.61000000
   N     77.42000000    36.95000000    27.86000000
   C     78.76000000    36.54000000    27.47000000
   C     78.83000000    36.01000000    26.05000000
   O     79.82000000    36.14000000    25.33000000
   C     79.19000000    35.42000000    28.42000000
   H     77.00000000    36.49000000    28.65000000
   H     79.45000000    37.36000000    27.66000000
   H     79.30000000    35.78000000    29.44000000
   H     78.47000000    34.60000000    28.38000000
   H     80.17000000    35.11000000    28.05000000
   N     77.77000000    35.39000000    25.52000000
   C     77.67000000    34.93000000    24.15000000
   C     77.72000000    36.06000000    23.14000000
   O     78.41000000    36.01000000    22.12000000
   C     76.34000000    34.19000000    24.07000000
   H     76.98000000    35.19000000    26.12000000
   H     78.51000000    34.27000000    23.95000000
   H     75.57000000    34.88000000    24.42000000
   H     76.11000000    33.92000000    23.03000000
   H     76.28000000    33.21000000    24.55000000
   N     76.89000000    37.06000000    23.44000000
   C     76.62000000    38.16000000    22.54000000
   C     77.83000000    39.09000000    22.47000000
   O     78.26000000    39.33000000    21.35000000
   C     75.39000000    38.89000000    23.07000000
   C     74.14000000    38.04000000    22.85000000
   C     73.10000000    38.77000000    23.69000000
   O     72.94000000    38.58000000    24.91000000
   O     72.25000000    39.48000000    23.12000000
   H     76.61000000    37.22000000    24.40000000
   H     76.53000000    37.76000000    21.53000000
   H     75.32000000    39.81000000    22.49000000
   H     75.52000000    39.04000000    24.14000000
   H     74.32000000    37.05000000    23.27000000
   H     73.75000000    37.94000000    21.84000000
   N     78.48000000    39.37000000    23.60000000
   C     79.79000000    39.99000000    23.64000000
   H     80.49700000    39.38000000    23.07800000
   H     79.73600000    40.98400000    23.19700000
   H     80.12300000    40.07100000    24.67500000
   H     78.12000000    38.91000000    24.42000000
  Ca     70.41000000    39.91000000    24.94000000
   O     70.25000000    37.15000000    25.03000000
   H     70.56000000    36.48000000    25.63000000
   H     69.53000000    36.73000000    24.55000000

Ca 1.70



