%chk=CaMKII_loop3_2.0.chk
%nprocshared=48
%mem=10GB
%nosave
#b3lyp/svp scf=(tight,noincore) Test 
#IOP(5/87=12) Density=Current Pop=(MK,readradii) iop(6/33=2) iop(6/42=6)

CaMKII_loop3_2.0 

   0   1
   C     77.90000000    62.25000000    20.79000000
   C     77.82000000    60.84000000    20.24000000
   O     78.87000000    60.21000000    20.10000000
   H     78.58100000    62.84000000    20.17700000
   H     76.90900000    62.70400000    20.77200000
   H     78.26800000    62.22000000    21.81600000
   N     76.65000000    60.33000000    19.85000000
   C     76.49000000    59.10000000    19.09000000
   C     76.69000000    59.34000000    17.60000000
   O     75.82000000    59.90000000    16.93000000
   C     75.14000000    58.43000000    19.33000000
   C     74.89000000    57.12000000    18.61000000
   O     73.82000000    56.55000000    18.93000000
   O     75.65000000    56.67000000    17.72000000
   H     75.83000000    60.90000000    19.97000000
   H     77.22000000    58.39000000    19.47000000
   H     74.37000000    59.12000000    18.98000000
   H     75.02000000    58.26000000    20.40000000
   N     77.82000000    58.97000000    16.99000000
   C     78.28000000    59.31000000    15.66000000
   C     77.46000000    58.72000000    14.52000000
   O     77.38000000    59.32000000    13.45000000
   C     79.73000000    58.82000000    15.62000000
   C     80.57000000    59.45000000    14.51000000
   C     82.08000000    59.21000000    14.53000000
   C     82.77000000    59.90000000    13.36000000
   N     82.38000000    59.32000000    12.06000000
   H     78.30000000    58.28000000    17.54000000
   H     78.37000000    60.39000000    15.55000000
   H     79.71000000    57.73000000    15.51000000
   H     80.28000000    59.00000000    16.54000000
   H     80.43000000    60.52000000    14.69000000
   H     80.17000000    59.25000000    13.52000000
   H     82.24000000    58.13000000    14.62000000
   H     82.51000000    59.58000000    15.46000000
   H     83.85000000    59.80000000    13.43000000
   H     82.47000000    60.95000000    13.41000000
   H     81.41000000    59.47000000    11.82000000
   H     83.00000000    59.66000000    11.34000000
   H     82.50000000    58.33000000    11.93000000
   N     76.79000000    57.60000000    14.78000000
   C     76.08000000    56.84000000    13.76000000
   C     74.60000000    56.67000000    14.07000000
   O     73.94000000    56.00000000    13.28000000
   C     76.81000000    55.51000000    13.61000000
   C     77.28000000    54.84000000    14.90000000
   O     76.43000000    54.54000000    15.77000000
   O     78.49000000    54.57000000    15.03000000
   H     76.80000000    57.18000000    15.70000000
   H     76.06000000    57.41000000    12.84000000
   H     77.64000000    55.67000000    12.93000000
   H     76.13000000    54.88000000    13.03000000
   N     74.10000000    57.26000000    15.16000000
   C     72.72000000    57.28000000    15.59000000
   C     72.15000000    55.92000000    15.96000000
   O     70.93000000    55.80000000    16.03000000
   H     74.77000000    57.72000000    15.76000000
   H     72.11000000    57.72000000    14.80000000
   H     72.65000000    58.01000000    16.39000000
   N     72.97000000    54.88000000    16.14000000
   C     72.59000000    53.51000000    16.41000000
   C     71.85000000    53.39000000    17.74000000
   O     71.06000000    52.45000000    17.87000000
   C     73.76000000    52.53000000    16.28000000
   C     74.67000000    52.35000000    17.49000000
   N     75.00000000    51.07000000    17.65000000
   O     75.06000000    53.13000000    18.35000000
   H     73.96000000    55.04000000    16.29000000
   H     71.90000000    53.23000000    15.62000000
   H     74.43000000    52.84000000    15.47000000
   H     73.33000000    51.57000000    16.00000000
   H     74.88000000    50.38000000    16.92000000
   H     75.47000000    50.70000000    18.47000000
   N     71.97000000    54.29000000    18.71000000
   C     71.30000000    54.30000000    20.00000000
   C     72.22000000    54.41000000    21.21000000
   O     71.72000000    54.23000000    22.31000000
   H     72.58000000    55.09000000    18.59000000
   H     70.70000000    53.41000000    20.16000000
   H     70.59000000    55.12000000    20.01000000
   N     73.55000000    54.53000000    21.11000000
   C     74.60000000    54.40000000    22.10000000
   C     75.86000000    55.18000000    21.78000000
   O     76.28000000    55.16000000    20.62000000
   C     75.09000000    52.96000000    22.19000000
   C     74.11000000    51.88000000    22.60000000
   C     73.67000000    51.70000000    23.91000000
   C     73.59000000    51.09000000    21.57000000
   C     72.87000000    50.61000000    24.26000000
   C     72.65000000    50.10000000    21.89000000
   C     72.36000000    49.80000000    23.23000000
   O     71.41000000    48.84000000    23.46000000
   H     73.87000000    54.80000000    20.19000000
   H     74.29000000    54.72000000    23.10000000
   H     75.96000000    52.93000000    22.86000000
   H     75.50000000    52.72000000    21.21000000
   H     74.07000000    52.37000000    24.67000000
   H     73.83000000    51.24000000    20.53000000
   H     72.41000000    50.36000000    25.20000000
   H     72.19000000    49.58000000    21.06000000
   H     71.20000000    48.34000000    22.66000000
   N     76.52000000    55.72000000    22.81000000
   C     77.82000000    56.36000000    22.76000000
   C     78.92000000    55.42000000    23.25000000
   O     78.84000000    54.93000000    24.37000000
   C     77.86000000    57.63000000    23.61000000
   C     76.74000000    58.61000000    23.25000000
   C     79.22000000    58.32000000    23.50000000
   C     76.43000000    59.58000000    24.39000000
   H     76.05000000    55.79000000    23.70000000
   H     78.14000000    56.60000000    21.75000000
   H     77.82000000    57.42000000    24.67000000
   H     75.80000000    58.07000000    23.18000000
   H     76.81000000    59.17000000    22.31000000
   H     79.63000000    58.25000000    22.49000000
   H     79.10000000    59.38000000    23.71000000
   H     79.94000000    57.84000000    24.16000000
   H     75.52000000    60.12000000    24.17000000
   H     76.22000000    58.97000000    25.28000000
   H     77.32000000    60.20000000    24.54000000
   N     79.93000000    55.27000000    22.39000000
   C     81.19000000    54.62000000    22.66000000
   C     82.45000000    55.47000000    22.56000000
   O     82.43000000    56.57000000    22.01000000
   C     81.22000000    53.33000000    21.84000000
   O     81.43000000    53.57000000    20.47000000
   H     79.79000000    55.66000000    21.47000000
   H     81.19000000    54.23000000    23.68000000
   H     80.27000000    52.80000000    21.90000000
   H     81.98000000    52.63000000    22.17000000
   H     80.86000000    54.27000000    20.15000000
   N     83.58000000    54.93000000    23.03000000
   C     84.76000000    55.73000000    23.27000000
   C     85.19000000    56.48000000    22.03000000
   O     85.24000000    57.71000000    22.03000000
   C     85.92000000    54.86000000    23.75000000
   H     83.47000000    54.10000000    23.59000000
   H     84.67000000    56.44000000    24.10000000
   H     86.11000000    54.02000000    23.09000000
   H     86.86000000    55.41000000    23.71000000
   H     85.88000000    54.63000000    24.82000000
   N     85.27000000    55.78000000    20.89000000
   C     85.85000000    56.44000000    19.74000000
   C     85.00000000    57.51000000    19.07000000
   O     85.49000000    58.39000000    18.36000000
   C     86.12000000    55.37000000    18.68000000
   H     85.09000000    54.79000000    20.81000000
   H     86.83000000    56.77000000    20.08000000
   H     86.73000000    54.55000000    19.06000000
   H     85.23000000    55.01000000    18.18000000
   H     86.68000000    55.79000000    17.84000000
   N     83.70000000    57.45000000    19.34000000
   C     82.69000000    58.44000000    19.03000000
   C     82.85000000    59.59000000    20.01000000
   O     82.72000000    60.71000000    19.51000000
   C     81.32000000    57.78000000    19.17000000
   C     81.17000000    56.57000000    18.26000000
   C     79.74000000    56.17000000    18.60000000
   O     78.75000000    56.58000000    17.95000000
   O     79.48000000    55.28000000    19.44000000
   H     83.40000000    56.70000000    19.95000000
   H     82.94000000    58.81000000    18.03000000
   H     80.54000000    58.46000000    18.85000000
   H     81.10000000    57.59000000    20.23000000
   H     81.85000000    55.75000000    18.47000000
   H     81.32000000    56.89000000    17.23000000
   N     83.14000000    59.45000000    21.30000000
   C     83.45000000    60.61000000    22.12000000
   H     84.31700000    61.12600000    21.70600000
   H     82.59600000    61.28700000    22.13000000
   H     83.67100000    60.28800000    23.13800000
   H     83.03000000    58.59000000    21.82000000
  Ca     77.12000000    54.58000000    18.18000000
   O     77.62000000    52.42000000    19.63000000
   H     77.53000000    51.86000000    20.40000000
   H     78.04000000    51.87000000    18.97000000

Ca 1.70



