%chk=CaMKII_loop3_26.0.chk
%nprocshared=48
%mem=10GB
%nosave
#b3lyp/svp scf=(tight,noincore) Test 
#IOP(5/87=12) Density=Current Pop=(MK,readradii) iop(6/33=2) iop(6/42=6)

CaMKII_loop3_26.0 

   0   1
   C     70.92000000    47.77000000    20.12000000
   C     69.61000000    47.24000000    20.68000000
   O     69.55000000    46.06000000    21.01000000
   H     71.70600000    47.03000000    20.27300000
   H     70.80800000    47.96500000    19.05300000
   H     71.18700000    48.69400000    20.63200000
   N     68.49000000    47.96000000    20.72000000
   C     67.19000000    47.60000000    21.25000000
   C     66.22000000    47.51000000    20.08000000
   O     65.62000000    48.50000000    19.67000000
   C     66.69000000    48.67000000    22.23000000
   C     65.32000000    48.31000000    22.81000000
   O     64.93000000    47.13000000    22.82000000
   O     64.56000000    49.26000000    23.09000000
   H     68.58000000    48.96000000    20.63000000
   H     67.15000000    46.64000000    21.76000000
   H     66.83000000    49.67000000    21.84000000
   H     67.25000000    48.73000000    23.16000000
   N     66.23000000    46.30000000    19.50000000
   C     65.62000000    45.91000000    18.25000000
   C     64.12000000    46.17000000    18.23000000
   O     63.58000000    46.63000000    17.22000000
   C     66.03000000    44.47000000    17.95000000
   C     65.53000000    44.03000000    16.58000000
   C     66.39000000    42.98000000    15.88000000
   C     65.84000000    42.69000000    14.48000000
   N     66.19000000    43.72000000    13.49000000
   H     66.89000000    45.65000000    19.91000000
   H     65.97000000    46.55000000    17.44000000
   H     65.70000000    43.83000000    18.76000000
   H     67.10000000    44.28000000    17.89000000
   H     65.39000000    44.88000000    15.92000000
   H     64.62000000    43.46000000    16.78000000
   H     66.21000000    42.06000000    16.44000000
   H     67.45000000    43.23000000    15.82000000
   H     64.77000000    42.63000000    14.66000000
   H     66.21000000    41.71000000    14.19000000
   H     67.20000000    43.74000000    13.48000000
   H     65.82000000    43.44000000    12.60000000
   H     65.88000000    44.66000000    13.71000000
   N     63.46000000    45.99000000    19.38000000
   C     62.02000000    46.01000000    19.41000000
   C     61.47000000    47.36000000    19.85000000
   O     60.27000000    47.56000000    19.67000000
   C     61.44000000    44.72000000    19.99000000
   C     61.66000000    44.60000000    21.49000000
   O     61.27000000    43.56000000    22.08000000
   O     62.34000000    45.40000000    22.15000000
   H     63.93000000    45.57000000    20.17000000
   H     61.67000000    45.83000000    18.39000000
   H     61.70000000    43.81000000    19.44000000
   H     60.37000000    44.77000000    19.81000000
   N     62.30000000    48.19000000    20.49000000
   C     61.81000000    49.42000000    21.07000000
   C     61.09000000    49.50000000    22.41000000
   O     60.40000000    50.49000000    22.62000000
   H     63.26000000    47.90000000    20.67000000
   H     61.24000000    50.06000000    20.40000000
   H     62.73000000    49.97000000    21.28000000
   N     61.28000000    48.57000000    23.35000000
   C     60.80000000    48.64000000    24.72000000
   C     61.54000000    49.63000000    25.61000000
   O     61.01000000    49.94000000    26.67000000
   C     60.62000000    47.24000000    25.31000000
   C     61.87000000    46.64000000    25.95000000
   N     61.81000000    46.07000000    27.15000000
   O     62.94000000    46.61000000    25.36000000
   H     61.84000000    47.76000000    23.15000000
   H     59.81000000    49.09000000    24.74000000
   H     60.32000000    46.52000000    24.55000000
   H     59.86000000    47.40000000    26.07000000
   H     60.97000000    45.84000000    27.66000000
   H     62.60000000    45.46000000    27.31000000
   N     62.73000000    50.02000000    25.15000000
   C     63.54000000    50.95000000    25.90000000
   C     64.70000000    50.23000000    26.58000000
   O     65.50000000    50.90000000    27.23000000
   H     63.11000000    49.55000000    24.34000000
   H     62.85000000    51.44000000    26.57000000
   H     63.96000000    51.68000000    25.21000000
   N     64.86000000    48.91000000    26.44000000
   C     65.90000000    48.07000000    26.98000000
   C     66.57000000    47.09000000    26.02000000
   O     65.89000000    46.39000000    25.28000000
   C     65.33000000    47.25000000    28.14000000
   C     64.64000000    48.01000000    29.24000000
   C     65.19000000    48.09000000    30.53000000
   C     63.31000000    48.43000000    29.09000000
   C     64.56000000    48.62000000    31.66000000
   C     62.67000000    49.07000000    30.16000000
   C     63.28000000    49.15000000    31.42000000
   O     62.66000000    49.84000000    32.42000000
   H     64.34000000    48.48000000    25.68000000
   H     66.69000000    48.72000000    27.36000000
   H     66.14000000    46.63000000    28.50000000
   H     64.67000000    46.46000000    27.79000000
   H     66.11000000    47.53000000    30.61000000
   H     62.85000000    48.26000000    28.13000000
   H     65.01000000    48.64000000    32.64000000
   H     61.67000000    49.46000000    30.02000000
   H     61.75000000    50.03000000    32.18000000
   N     67.88000000    46.89000000    26.13000000
   C     68.66000000    45.87000000    25.45000000
   C     68.59000000    44.55000000    26.20000000
   O     68.81000000    44.59000000    27.40000000
   C     70.06000000    46.42000000    25.16000000
   C     70.04000000    47.75000000    24.41000000
   C     70.92000000    45.33000000    24.54000000
   C     71.29000000    48.57000000    24.70000000
   H     68.32000000    47.52000000    26.79000000
   H     68.24000000    45.63000000    24.47000000
   H     70.51000000    46.62000000    26.14000000
   H     69.20000000    48.39000000    24.67000000
   H     69.95000000    47.55000000    23.34000000
   H     71.28000000    44.67000000    25.34000000
   H     70.29000000    44.76000000    23.87000000
   H     71.79000000    45.73000000    24.02000000
   H     72.12000000    47.95000000    24.37000000
   H     71.21000000    49.51000000    24.15000000
   H     71.26000000    48.84000000    25.76000000
   N     68.41000000    43.39000000    25.57000000
   C     68.78000000    42.12000000    26.18000000
   C     70.07000000    41.53000000    25.63000000
   O     70.69000000    42.07000000    24.71000000
   C     67.57000000    41.20000000    26.14000000
   O     67.18000000    40.89000000    24.82000000
   H     67.97000000    43.42000000    24.66000000
   H     69.01000000    42.27000000    27.23000000
   H     66.76000000    41.80000000    26.56000000
   H     67.90000000    40.31000000    26.68000000
   H     66.89000000    41.73000000    24.45000000
   N     70.50000000    40.36000000    26.12000000
   C     71.71000000    39.64000000    25.78000000
   C     71.71000000    39.02000000    24.39000000
   O     72.72000000    39.03000000    23.69000000
   C     71.94000000    38.63000000    26.90000000
   H     69.88000000    39.94000000    26.79000000
   H     72.58000000    40.30000000    25.77000000
   H     71.99000000    39.18000000    27.84000000
   H     71.22000000    37.81000000    26.92000000
   H     72.96000000    38.26000000    26.75000000
   N     70.54000000    38.53000000    23.98000000
   C     70.16000000    38.25000000    22.61000000
   C     70.14000000    39.48000000    21.70000000
   O     70.46000000    39.29000000    20.53000000
   C     68.78000000    37.61000000    22.63000000
   H     69.75000000    38.55000000    24.61000000
   H     70.80000000    37.52000000    22.12000000
   H     68.33000000    37.61000000    21.63000000
   H     68.88000000    36.63000000    23.10000000
   H     68.08000000    38.21000000    23.21000000
   N     69.86000000    40.72000000    22.12000000
   C     69.80000000    41.80000000    21.16000000
   C     71.20000000    42.40000000    21.04000000
   O     71.56000000    42.78000000    19.93000000
   C     68.73000000    42.78000000    21.63000000
   C     67.31000000    42.30000000    21.38000000
   C     66.41000000    43.34000000    22.04000000
   O     66.59000000    43.59000000    23.25000000
   O     65.36000000    43.79000000    21.53000000
   H     69.61000000    40.89000000    23.08000000
   H     69.54000000    41.57000000    20.13000000
   H     68.90000000    43.79000000    21.25000000
   H     68.89000000    42.85000000    22.70000000
   H     67.05000000    41.28000000    21.67000000
   H     67.17000000    42.25000000    20.30000000
   N     71.98000000    42.34000000    22.12000000
   C     73.39000000    42.66000000    22.13000000
   H     73.94000000    41.89300000    21.58400000
   H     73.54700000    43.62800000    21.65300000
   H     73.74700000    42.69900000    23.15900000
   H     71.61000000    41.93000000    22.97000000
  Ca     64.32000000    44.80000000    23.83000000
   O     63.98000000    42.13000000    23.67000000
   H     63.39000000    41.72000000    24.31000000
   H     63.88000000    41.60000000    22.88000000

Ca 1.70



