%chk=CaMKII_loop3_0.0.chk
%nprocshared=48
%mem=10GB
%nosave
#b3lyp/svp scf=(tight,noincore) Test 
#IOP(5/87=12) Density=Current Pop=(MK,readradii) iop(6/33=2) iop(6/42=6)

CaMKII_loop3_0.0 

   0   1
   C     82.15000000    56.28000000    15.97000000
   C     82.12000000    54.97000000    15.20000000
   O     83.02000000    54.72000000    14.39000000
   H     82.27800000    57.10800000    15.27300000
   H     81.21300000    56.40400000    16.51300000
   H     82.98100000    56.26900000    16.67500000
   N     81.13000000    54.14000000    15.54000000
   C     81.07000000    52.85000000    14.88000000
   C     80.54000000    53.10000000    13.47000000
   O     79.34000000    53.09000000    13.23000000
   C     80.33000000    51.90000000    15.81000000
   C     80.08000000    50.55000000    15.17000000
   O     79.19000000    49.82000000    15.67000000
   O     80.86000000    50.17000000    14.27000000
   H     80.64000000    54.30000000    16.41000000
   H     82.04000000    52.43000000    14.62000000
   H     79.39000000    52.35000000    16.12000000
   H     80.87000000    51.69000000    16.74000000
   N     81.43000000    53.18000000    12.48000000
   C     81.19000000    53.77000000    11.17000000
   C     80.28000000    52.94000000    10.28000000
   O     79.54000000    53.42000000     9.43000000
   C     82.51000000    54.10000000    10.49000000
   C     82.49000000    55.45000000     9.79000000
   C     83.80000000    56.15000000     9.44000000
   C     84.52000000    55.53000000     8.24000000
   N     85.82000000    56.18000000     8.02000000
   H     82.40000000    53.05000000    12.69000000
   H     80.60000000    54.67000000    11.35000000
   H     82.79000000    53.32000000     9.77000000
   H     83.31000000    54.12000000    11.23000000
   H     81.92000000    56.13000000    10.43000000
   H     81.80000000    55.34000000     8.95000000
   H     84.56000000    56.15000000    10.22000000
   H     83.51000000    57.19000000     9.27000000
   H     83.85000000    55.56000000     7.38000000
   H     84.60000000    54.46000000     8.44000000
   H     86.51000000    55.76000000     8.63000000
   H     86.19000000    56.02000000     7.10000000
   H     85.80000000    57.19000000     8.13000000
   N     80.29000000    51.63000000    10.55000000
   C     79.60000000    50.58000000     9.84000000
   C     78.42000000    49.94000000    10.56000000
   O     77.58000000    49.30000000     9.95000000
   C     80.53000000    49.52000000     9.25000000
   C     81.35000000    48.76000000    10.28000000
   O     81.98000000    47.76000000     9.88000000
   O     81.37000000    49.15000000    11.47000000
   H     80.95000000    51.38000000    11.28000000
   H     79.18000000    50.89000000     8.88000000
   H     81.16000000    49.98000000     8.48000000
   H     79.93000000    48.79000000     8.71000000
   N     78.30000000    50.30000000    11.84000000
   C     77.27000000    50.10000000    12.83000000
   C     77.32000000    48.70000000    13.44000000
   O     76.42000000    48.33000000    14.20000000
   H     79.16000000    50.61000000    12.28000000
   H     76.26000000    50.14000000    12.41000000
   H     77.20000000    50.94000000    13.52000000
   N     78.34000000    47.88000000    13.19000000
   C     78.45000000    46.47000000    13.54000000
   C     78.49000000    46.19000000    15.03000000
   O     78.41000000    45.04000000    15.44000000
   C     79.70000000    45.89000000    12.87000000
   C     80.92000000    45.77000000    13.77000000
   N     81.34000000    44.53000000    14.04000000
   O     81.55000000    46.75000000    14.17000000
   H     79.10000000    48.32000000    12.71000000
   H     77.58000000    45.98000000    13.12000000
   H     80.00000000    46.55000000    12.06000000
   H     79.42000000    44.95000000    12.40000000
   H     80.94000000    43.71000000    13.63000000
   H     82.26000000    44.34000000    14.42000000
   N     78.64000000    47.22000000    15.88000000
   C     78.55000000    47.09000000    17.32000000
   C     79.88000000    47.11000000    18.06000000
   O     79.90000000    47.12000000    19.29000000
   H     78.81000000    48.14000000    15.51000000
   H     77.97000000    46.19000000    17.54000000
   H     77.99000000    47.93000000    17.73000000
   N     80.96000000    47.27000000    17.29000000
   C     82.30000000    47.54000000    17.78000000
   C     82.89000000    48.73000000    17.04000000
   O     82.99000000    48.84000000    15.82000000
   C     83.09000000    46.26000000    17.54000000
   C     82.62000000    45.06000000    18.34000000
   C     83.09000000    44.89000000    19.65000000
   C     81.66000000    44.19000000    17.82000000
   C     82.67000000    43.79000000    20.41000000
   C     81.17000000    43.13000000    18.59000000
   C     81.66000000    42.95000000    19.90000000
   O     81.01000000    42.12000000    20.77000000
   H     80.87000000    47.19000000    16.29000000
   H     82.36000000    47.73000000    18.85000000
   H     84.11000000    46.45000000    17.85000000
   H     83.16000000    45.94000000    16.50000000
   H     83.75000000    45.63000000    20.08000000
   H     81.26000000    44.36000000    16.83000000
   H     82.87000000    43.69000000    21.46000000
   H     80.48000000    42.39000000    18.22000000
   H     80.29000000    41.61000000    20.38000000
   N     83.42000000    49.68000000    17.81000000
   C     84.36000000    50.69000000    17.37000000
   C     85.71000000    50.01000000    17.25000000
   O     86.24000000    49.45000000    18.21000000
   C     84.33000000    51.86000000    18.35000000
   C     82.94000000    52.48000000    18.43000000
   C     85.34000000    52.94000000    17.96000000
   C     82.70000000    53.51000000    19.54000000
   H     83.36000000    49.64000000    18.82000000
   H     83.99000000    51.26000000    16.52000000
   H     84.57000000    51.49000000    19.34000000
   H     82.29000000    51.63000000    18.64000000
   H     82.71000000    52.90000000    17.45000000
   H     85.22000000    53.30000000    16.94000000
   H     85.31000000    53.84000000    18.58000000
   H     86.33000000    52.53000000    18.11000000
   H     82.91000000    53.05000000    20.51000000
   H     83.34000000    54.38000000    19.44000000
   H     81.67000000    53.83000000    19.36000000
   N     86.32000000    50.28000000    16.09000000
   C     87.74000000    50.10000000    15.90000000
   C     88.64000000    51.27000000    16.27000000
   O     88.14000000    52.36000000    16.52000000
   C     87.98000000    49.56000000    14.49000000
   O     88.13000000    50.53000000    13.48000000
   H     85.80000000    50.76000000    15.37000000
   H     88.14000000    49.36000000    16.60000000
   H     87.16000000    48.94000000    14.15000000
   H     88.85000000    48.90000000    14.48000000
   H     88.47000000    50.12000000    12.68000000
   N     89.96000000    51.06000000    16.27000000
   C     90.92000000    52.13000000    16.39000000
   C     90.84000000    53.06000000    15.19000000
   O     90.80000000    54.26000000    15.45000000
   C     92.23000000    51.39000000    16.62000000
   H     90.36000000    50.16000000    16.04000000
   H     90.77000000    52.65000000    17.34000000
   H     92.23000000    50.87000000    17.58000000
   H     92.36000000    50.60000000    15.87000000
   H     93.05000000    52.12000000    16.63000000
   N     90.83000000    52.61000000    13.93000000
   C     90.77000000    53.54000000    12.82000000
   C     89.54000000    54.43000000    12.71000000
   O     89.71000000    55.55000000    12.23000000
   C     90.90000000    52.92000000    11.44000000
   H     90.97000000    51.64000000    13.69000000
   H     91.62000000    54.22000000    12.88000000
   H     90.82000000    53.66000000    10.65000000
   H     91.80000000    52.30000000    11.44000000
   H     89.99000000    52.34000000    11.30000000
   N     88.46000000    53.93000000    13.32000000
   C     87.18000000    54.61000000    13.40000000
   C     87.15000000    55.69000000    14.48000000
   O     86.54000000    56.74000000    14.29000000
   C     86.13000000    53.54000000    13.68000000
   C     85.86000000    52.65000000    12.48000000
   C     84.85000000    51.53000000    12.72000000
   O     83.76000000    51.42000000    12.11000000
   O     85.04000000    50.80000000    13.72000000
   H     88.54000000    53.02000000    13.75000000
   H     86.86000000    55.07000000    12.46000000
   H     85.25000000    54.08000000    14.03000000
   H     86.50000000    52.89000000    14.47000000
   H     86.77000000    52.17000000    12.13000000
   H     85.50000000    53.31000000    11.69000000
   N     87.76000000    55.40000000    15.63000000
   C     87.98000000    56.37000000    16.69000000
   H     88.76200000    57.06600000    16.38800000
   H     87.05800000    56.92000000    16.87700000
   H     88.28600000    55.85200000    17.59900000
   H     88.07000000    54.46000000    15.81000000
  Ca     83.08000000    49.15000000    13.25000000
   O     84.38000000    46.96000000    13.82000000
   H     84.20000000    46.11000000    13.43000000
   H     85.03000000    46.78000000    14.50000000

Ca 1.70



