%Nproc=28
%chk=holo4.0.chk
%mem=80GB
%NoSave
#MP2(semidirect)/Gen scf=(tight,noincore) Test
#IOP(5/87=12) Density=Current Pop=(MK,readradii) iop(6/33=2) iop(6/42=6)

holo_loop_3_model_4.0 

   0   1
   C     27.78800000    32.16500000    39.99400000
   C     27.96600000    32.10700000    41.50400000
   O     27.04300000    32.06600000    42.31400000
   O     29.24400000    32.32700000    41.92800000
   H     27.13500000    32.99900000    39.73700000
   H     28.75900000    32.30400000    39.51800000
   H     27.34200000    31.23400000    39.64400000
   H     29.75600000    32.65700000    41.18500000
   C     22.98500000    35.44100000    44.45100000
   C     23.14500000    33.93300000    44.59000000
   O     24.02100000    33.32100000    43.94200000
   O     22.48700000    33.36700000    45.48900000
   H     22.08600000    35.76000000    44.97800000
   H     23.85400000    35.94000000    44.88000000
   H     22.90000000    35.70200000    43.39600000
   C     26.39400000    32.65600000    46.96800000
   C     25.85900000    31.35900000    46.37900000
   N     24.84200000    30.73400000    46.97700000
   O     26.15000000    30.94400000    45.25900000
   H     27.32200000    32.92800000    46.46400000
   H     25.66000000    33.44900000    46.82800000
   H     26.58500000    32.52100000    48.03300000
  HD     24.42700000    31.10100000    47.82100000
  HD     24.33500000    30.01700000    46.47900000
   C     27.71200000    28.04600000    43.34600000
   C     26.81900000    28.29800000    42.14000000
   O     26.41200000    29.43900000    41.92800000
   H     28.60000000    28.67400000    43.27700000
   H     27.16700000    28.28700000    44.25900000
   H     28.01000000    26.99800000    43.36600000
   N     26.51500000    27.31500000    41.28900000
   H     26.86400000    26.38100000    41.45100000
   H     25.93600000    27.50500000    40.48300000
   C     21.23100000    26.01800000    42.09500000
   O     20.44300000    27.18500000    42.16700000
   H     21.61300000    25.88000000    41.08400000
   H     21.97900000    26.13300000    42.87900000
   H     20.64700000    25.16200000    42.43300000
   H     20.00700000    27.26900000    43.01800000
   C     21.08200000    30.80600000    40.29300000
   C     22.34100000    30.88400000    41.14400000
   O     23.23000000    31.73200000    40.91200000
   O     22.48900000    29.97600000    41.99100000
   H     20.31500000    31.45200000    40.72000000
   H     21.30800000    31.13300000    39.27800000
   H     20.72000000    29.77800000    40.27200000
  Ca     24.67900000    31.00800000    43.07100000
   O     24.04800000    28.48500000    43.63900000
   H     23.70300000    27.90300000    44.31700000
   H     23.30100000    28.65300000    43.06400000

C O H 0
aug-cc-pVTZ 
****
@/home/pzhang5/ca_ccpvtz_basisset.gbs/N

Ca 1.70




