%Nproc=28
%chk=holo7.0.chk
%mem=80GB
%NoSave
#MP2(semidirect)/Gen scf=(tight,noincore) Test
#IOP(5/87=12) Density=Current Pop=(MK,readradii) iop(6/33=2) iop(6/42=6)

holo_loop_3_model_7.0 

   0   1
   C     31.15900000    25.16800000    43.61600000
   C     31.52900000    25.74100000    44.97600000
   O     30.81200000    25.87200000    45.96500000
   O     32.75100000    26.34800000    44.98900000
   H     30.31600000    25.72400000    43.20500000
   H     32.01100000    25.25100000    42.94200000
   H     30.88300000    24.11900000    43.72600000
   H     33.22900000    26.26300000    44.16200000
   C     27.98300000    27.78200000    49.18500000
   C     28.62800000    26.40400000    49.16300000
   O     27.94000000    25.43600000    48.77200000
   O     29.85100000    26.24100000    49.36500000
   H     27.02200000    27.72400000    49.69600000
   H     28.63300000    28.48000000    49.71300000
   H     27.83100000    28.12900000    48.16300000
   C     33.29700000    26.64400000    50.23100000
   C     33.06700000    25.14400000    50.11300000
   N     33.33000000    24.39200000    51.18500000
   O     32.69000000    24.64900000    49.05300000
   H     34.21800000    26.91200000    49.71300000
   H     32.45900000    27.17700000    49.78100000
   H     33.38000000    26.91800000    51.28300000
  HD     33.75400000    24.84100000    51.98400000
  HD     33.02600000    23.42900000    51.19500000
   C     34.17200000    22.01700000    46.85800000
   C     32.69100000    21.81800000    46.56900000
   O     31.83900000    22.70300000    46.57100000
   H     34.70200000    22.20600000    45.92400000
   H     34.30100000    22.86800000    47.52700000
   H     34.57500000    21.12000000    47.32900000
   N     32.33000000    20.58300000    46.21000000
   H     33.02000000    19.84600000    46.17200000
   H     31.36700000    20.38600000    45.97600000
   C     27.68200000    19.59200000    49.16400000
   O     26.86000000    20.57400000    48.57500000
   H     28.12700000    18.99300000    48.37000000
   H     28.44100000    20.06700000    49.78600000
   H     27.07800000    19.00500000    49.85600000
   H     27.44200000    21.17000000    48.09700000
   C     26.51000000    22.55500000    45.93500000
   C     27.90600000    22.95400000    46.39200000
   O     28.43900000    23.95800000    45.87200000
   O     28.51500000    22.19100000    47.17400000
   H     25.84300000    23.41400000    46.01300000
   H     26.54800000    22.21900000    44.89900000
   H     26.13700000    21.74800000    46.56600000
  Ca     30.23100000    24.10500000    48.08100000
   O     29.69600000    22.63100000    50.49900000
   H     28.76300000    22.77200000    50.66100000
   H     29.95900000    21.98500000    51.15500000

C O H 0
aug-cc-pVTZ 
****
@/home/pzhang5/ca_ccpvtz_basisset.gbs/N

Ca 1.70




