%chk=holoCaM_loop3_92.0.chk
%nprocshared=48
%mem=10GB
%nosave
#b3lyp/svp scf=(tight,noincore) Test 
#IOP(5/87=12) Density=Current Pop=(MK,readradii) iop(6/33=2) iop(6/42=6)

holoCaM_loop3_92.0 

   0   1
   C     70.01000000    52.25000000    91.82000000
   C     69.92000000    52.78000000    93.24000000
   O     70.55000000    52.16000000    94.09000000
   H     71.04800000    52.27700000    91.48800000
   H     69.64700000    51.22300000    91.79100000
   H     69.40200000    52.87000000    91.16100000
   N     69.21000000    53.90000000    93.42000000
   C     69.11000000    54.44000000    94.75000000
   C     67.92000000    53.81000000    95.47000000
   O     66.84000000    53.67000000    94.90000000
   C     69.10000000    55.97000000    94.69000000
   C     69.36000000    56.60000000    96.05000000
   O     70.21000000    57.50000000    96.27000000
   O     68.71000000    56.22000000    97.05000000
   H     68.73000000    54.34000000    92.64000000
   H     70.01000000    54.17000000    95.29000000
   H     68.17000000    56.30000000    94.23000000
   H     69.88000000    56.35000000    94.03000000
   N     68.11000000    53.40000000    96.72000000
   C     67.10000000    52.65000000    97.44000000
   C     66.52000000    53.40000000    98.63000000
   O     65.71000000    52.79000000    99.33000000
   C     67.66000000    51.31000000    97.89000000
   C     68.40000000    50.48000000    96.85000000
   C     67.58000000    50.00000000    95.66000000
   C     68.36000000    48.94000000    94.89000000
   N     67.62000000    48.45000000    93.72000000
   H     68.99000000    53.60000000    97.18000000
   H     66.22000000    52.43000000    96.85000000
   H     66.86000000    50.79000000    98.42000000
   H     68.36000000    51.52000000    98.70000000
   H     68.52000000    49.55000000    97.40000000
   H     69.37000000    50.90000000    96.56000000
   H     67.35000000    50.76000000    94.91000000
   H     66.66000000    49.51000000    95.99000000
   H     68.66000000    48.06000000    95.47000000
   H     69.30000000    49.42000000    94.61000000
   H     67.47000000    49.21000000    93.07000000
   H     68.15000000    47.71000000    93.29000000
   H     66.72000000    48.12000000    94.03000000
   N     66.91000000    54.65000000    98.86000000
   C     66.44000000    55.42000000    99.99000000
   C     65.90000000    56.76000000    99.50000000
   O     65.26000000    57.50000000   100.24000000
   C     67.52000000    55.59000000   101.06000000
   C     68.83000000    56.16000000   100.54000000
   O     69.92000000    55.57000000   100.71000000
   O     68.76000000    57.16000000    99.80000000
   H     67.60000000    55.08000000    98.26000000
   H     65.63000000    54.87000000   100.47000000
   H     67.72000000    54.59000000   101.44000000
   H     67.13000000    56.19000000   101.88000000
   N     66.24000000    57.18000000    98.28000000
   C     65.73000000    58.41000000    97.70000000
   C     66.44000000    59.65000000    98.22000000
   O     65.78000000    60.65000000    98.47000000
   H     66.99000000    56.75000000    97.75000000
   H     64.74000000    58.68000000    98.05000000
   H     65.80000000    58.32000000    96.62000000
   N     67.71000000    59.61000000    98.63000000
   C     68.54000000    60.68000000    99.13000000
   C     69.46000000    61.35000000    98.11000000
   O     70.07000000    62.38000000    98.38000000
   C     69.30000000    60.29000000   100.39000000
   C     70.67000000    59.67000000   100.15000000
   N     71.71000000    60.04000000   100.90000000
   O     70.80000000    58.93000000    99.18000000
   H     68.15000000    58.69000000    98.63000000
   H     67.82000000    61.45000000    99.40000000
   H     68.69000000    59.60000000   100.97000000
   H     69.43000000    61.21000000   100.97000000
   H     71.65000000    60.78000000   101.59000000
   H     72.60000000    59.63000000   100.67000000
   N     69.40000000    60.97000000    96.83000000
   C     70.09000000    61.55000000    95.70000000
   C     71.55000000    61.16000000    95.54000000
   O     72.26000000    61.86000000    94.82000000
   H     68.83000000    60.16000000    96.61000000
   H     70.16000000    62.64000000    95.75000000
   H     69.51000000    61.28000000    94.82000000
   N     72.02000000    60.08000000    96.17000000
   C     73.39000000    59.61000000    96.11000000
   C     73.40000000    58.09000000    96.02000000
   O     73.05000000    57.44000000    97.01000000
   C     74.12000000    60.05000000    97.38000000
   C     74.54000000    61.50000000    97.43000000
   C     74.26000000    62.20000000    98.62000000
   C     75.18000000    62.10000000    96.35000000
   C     74.63000000    63.54000000    98.72000000
   C     75.52000000    63.45000000    96.45000000
   C     75.32000000    64.15000000    97.66000000
   O     75.69000000    65.45000000    97.84000000
   H     71.35000000    59.59000000    96.74000000
   H     73.81000000    59.96000000    95.17000000
   H     75.02000000    59.43000000    97.36000000
   H     73.59000000    59.79000000    98.30000000
   H     73.74000000    61.75000000    99.45000000
   H     75.43000000    61.53000000    95.46000000
   H     74.52000000    64.12000000    99.63000000
   H     75.95000000    64.05000000    95.66000000
   H     76.21000000    65.80000000    97.11000000
   N     73.85000000    57.52000000    94.90000000
   C     74.08000000    56.09000000    94.87000000
   C     75.37000000    55.88000000    95.65000000
   O     76.47000000    56.26000000    95.27000000
   C     74.05000000    55.51000000    93.46000000
   C     72.71000000    55.87000000    92.82000000
   C     74.22000000    54.01000000    93.64000000
   C     72.92000000    55.79000000    91.31000000
   H     74.36000000    58.04000000    94.20000000
   H     73.31000000    55.51000000    95.37000000
   H     74.87000000    56.03000000    92.97000000
   H     72.42000000    56.90000000    92.99000000
   H     72.00000000    55.14000000    93.23000000
   H     74.28000000    53.50000000    92.67000000
   H     75.18000000    53.84000000    94.12000000
   H     73.44000000    53.56000000    94.26000000
   H     73.44000000    54.86000000    91.07000000
   H     71.97000000    55.92000000    90.78000000
   H     73.51000000    56.64000000    90.99000000
   N     75.24000000    55.22000000    96.80000000
   C     76.25000000    54.68000000    97.68000000
   C     76.85000000    53.41000000    97.09000000
   O     76.32000000    52.73000000    96.21000000
   C     75.68000000    54.45000000    99.07000000
   O     75.64000000    53.09000000    99.46000000
   H     74.29000000    54.87000000    96.89000000
   H     76.98000000    55.49000000    97.67000000
   H     74.66000000    54.83000000    99.00000000
   H     76.20000000    54.99000000    99.86000000
   H     75.27000000    53.15000000   100.34000000
   N     78.06000000    53.10000000    97.57000000
   C     78.72000000    51.85000000    97.25000000
   C     78.03000000    50.63000000    97.82000000
   O     78.00000000    49.64000000    97.08000000
   C     80.16000000    51.94000000    97.76000000
   H     78.44000000    53.81000000    98.18000000
   H     78.81000000    51.76000000    96.16000000
   H     80.60000000    51.00000000    97.45000000
   H     80.71000000    52.72000000    97.23000000
   H     80.19000000    52.07000000    98.84000000
   N     77.30000000    50.63000000    98.93000000
   C     76.47000000    49.54000000    99.39000000
   C     75.19000000    49.27000000    98.60000000
   O     74.82000000    48.12000000    98.40000000
   C     76.29000000    49.51000000   100.91000000
   H     77.13000000    51.49000000    99.44000000
   H     77.15000000    48.72000000    99.20000000
   H     75.74000000    50.37000000   101.30000000
   H     75.81000000    48.62000000   101.30000000
   H     77.29000000    49.46000000   101.34000000
   N     74.59000000    50.32000000    98.03000000
   C     73.50000000    50.13000000    97.09000000
   C     74.03000000    49.61000000    95.77000000
   O     73.54000000    48.67000000    95.15000000
   C     72.99000000    51.55000000    96.85000000
   C     72.15000000    52.07000000    98.01000000
   C     71.63000000    53.49000000    97.88000000
   O     72.35000000    54.41000000    97.44000000
   O     70.47000000    53.80000000    98.24000000
   H     74.77000000    51.24000000    98.42000000
   H     72.67000000    49.58000000    97.53000000
   H     72.35000000    51.41000000    95.98000000
   H     73.80000000    52.24000000    96.62000000
   H     72.60000000    51.99000000    99.00000000
   H     71.28000000    51.42000000    98.13000000
   N     75.09000000    50.23000000    95.22000000
   C     75.65000000    49.81000000    93.96000000
   H     76.66600000    49.44700000    94.11700000
   H     75.04000000    49.01000000    93.53900000
   H     75.66900000    50.65400000    93.27100000
   H     75.56000000    51.01000000    95.66000000
  Ca     70.99000000    56.39000000    98.50000000
   O     73.01000000    56.59000000   100.23800000
   H     73.29000000    55.73000000   100.56800000
   H     73.70000000    57.19000000   100.51800000

Ca 1.70



