%chk=holoCaM_loop3_86.0.chk
%nprocshared=48
%mem=10GB
%nosave
#b3lyp/svp scf=(tight,noincore) Test 
#IOP(5/87=12) Density=Current Pop=(MK,readradii) iop(6/33=2) iop(6/42=6)

holoCaM_loop3_86.0 

   0   1
   C     69.90000000    51.93000000    90.48000000
   C     70.44000000    53.20000000    89.84000000
   O     71.00000000    53.14000000    88.75000000
   H     68.90900000    51.71500000    90.07900000
   H     70.56900000    51.09800000    90.25900000
   H     69.83300000    52.06700000    91.55900000
   N     70.17000000    54.34000000    90.48000000
   C     70.59000000    55.68000000    90.11000000
   C     71.95000000    55.99000000    90.73000000
   O     72.09000000    56.32000000    91.90000000
   C     69.48000000    56.67000000    90.44000000
   C     69.80000000    58.11000000    90.10000000
   O     70.78000000    58.31000000    89.35000000
   O     69.13000000    59.05000000    90.59000000
   H     69.60000000    54.29000000    91.31000000
   H     70.69000000    55.70000000    89.03000000
   H     69.21000000    56.59000000    91.49000000
   H     68.53000000    56.48000000    89.93000000
   N     73.03000000    55.76000000    89.98000000
   C     74.38000000    55.67000000    90.50000000
   C     75.10000000    56.94000000    90.94000000
   O     76.17000000    56.81000000    91.52000000
   C     75.28000000    54.86000000    89.57000000
   C     75.03000000    53.36000000    89.74000000
   C     75.70000000    52.52000000    88.65000000
   C     75.89000000    51.13000000    89.26000000
   N     74.67000000    50.31000000    89.25000000
   H     72.85000000    55.50000000    89.02000000
   H     74.39000000    55.04000000    91.39000000
   H     76.32000000    55.07000000    89.83000000
   H     75.16000000    55.14000000    88.53000000
   H     73.95000000    53.24000000    89.74000000
   H     75.51000000    53.22000000    90.71000000
   H     76.67000000    52.96000000    88.43000000
   H     75.15000000    52.63000000    87.72000000
   H     76.23000000    51.19000000    90.29000000
   H     76.71000000    50.67000000    88.69000000
   H     74.46000000    50.17000000    90.23000000
   H     73.87000000    50.64000000    88.74000000
   H     74.74000000    49.34000000    88.96000000
   N     74.57000000    58.13000000    90.66000000
   C     74.94000000    59.41000000    91.24000000
   C     73.74000000    60.08000000    91.89000000
   O     73.96000000    61.08000000    92.57000000
   C     75.52000000    60.30000000    90.14000000
   C     74.63000000    60.65000000    88.95000000
   O     75.20000000    61.24000000    88.01000000
   O     73.42000000    60.35000000    89.00000000
   H     73.84000000    58.20000000    89.97000000
   H     75.64000000    59.31000000    92.06000000
   H     76.43000000    59.83000000    89.77000000
   H     75.82000000    61.23000000    90.62000000
   N     72.49000000    59.59000000    91.86000000
   C     71.39000000    59.97000000    92.71000000
   C     70.95000000    61.36000000    92.27000000
   O     70.54000000    62.18000000    93.09000000
   H     72.33000000    58.77000000    91.30000000
   H     71.60000000    59.94000000    93.78000000
   H     70.62000000    59.22000000    92.51000000
   N     71.10000000    61.73000000    91.00000000
   C     70.63000000    62.97000000    90.43000000
   C     69.23000000    62.91000000    89.84000000
   O     68.79000000    63.83000000    89.15000000
   C     71.65000000    63.50000000    89.42000000
   C     71.50000000    62.99000000    88.00000000
   N     71.57000000    63.84000000    86.96000000
   O     71.38000000    61.79000000    87.76000000
   H     71.62000000    61.09000000    90.42000000
   H     70.66000000    63.81000000    91.13000000
   H     72.64000000    63.20000000    89.76000000
   H     71.52000000    64.58000000    89.33000000
   H     71.39000000    64.82000000    87.08000000
   H     71.50000000    63.51000000    86.01000000
   N     68.48000000    61.82000000    90.03000000
   C     67.05000000    61.71000000    89.89000000
   C     66.56000000    60.82000000    88.75000000
   O     65.37000000    60.57000000    88.62000000
   H     68.92000000    61.00000000    90.42000000
   H     66.72000000    62.73000000    89.73000000
   H     66.51000000    61.52000000    90.82000000
   N     67.50000000    60.31000000    87.94000000
   C     67.20000000    59.53000000    86.76000000
   C     68.31000000    58.63000000    86.23000000
   O     69.49000000    58.89000000    86.45000000
   C     66.48000000    60.34000000    85.69000000
   C     66.72000000    61.83000000    85.63000000
   C     65.68000000    62.71000000    85.92000000
   C     68.01000000    62.32000000    85.39000000
   C     65.92000000    64.09000000    85.82000000
   C     68.26000000    63.70000000    85.31000000
   C     67.20000000    64.61000000    85.54000000
   O     67.36000000    65.96000000    85.44000000
   H     68.45000000    60.61000000    88.06000000
   H     66.46000000    58.76000000    87.01000000
   H     65.43000000    60.16000000    85.91000000
   H     66.67000000    59.95000000    84.69000000
   H     64.69000000    62.28000000    86.03000000
   H     68.79000000    61.61000000    85.17000000
   H     65.19000000    64.87000000    85.94000000
   H     69.28000000    64.03000000    85.22000000
   H     68.13000000    66.29000000    84.97000000
   N     67.82000000    57.63000000    85.49000000
   C     68.61000000    56.55000000    84.92000000
   C     69.06000000    56.98000000    83.53000000
   O     68.22000000    57.18000000    82.66000000
   C     67.88000000    55.21000000    84.96000000
   C     67.41000000    54.79000000    86.35000000
   C     68.68000000    54.04000000    84.39000000
   C     68.45000000    54.70000000    87.46000000
   H     66.82000000    57.55000000    85.35000000
   H     69.54000000    56.43000000    85.47000000
   H     66.95000000    55.40000000    84.43000000
   H     66.91000000    53.82000000    86.37000000
   H     66.64000000    55.51000000    86.63000000
   H     69.51000000    53.80000000    85.05000000
   H     68.18000000    53.07000000    84.37000000
   H     69.03000000    54.23000000    83.38000000
   H     69.08000000    55.59000000    87.42000000
   H     67.92000000    54.42000000    88.37000000
   H     69.12000000    53.87000000    87.28000000
   N     70.38000000    57.09000000    83.37000000
   C     71.00000000    57.11000000    82.06000000
   C     71.35000000    55.74000000    81.50000000
   O     71.13000000    54.68000000    82.07000000
   C     72.23000000    58.01000000    82.11000000
   O     73.20000000    57.57000000    83.03000000
   H     70.95000000    56.92000000    84.18000000
   H     70.26000000    57.47000000    81.34000000
   H     71.94000000    59.03000000    82.38000000
   H     72.79000000    58.21000000    81.19000000
   H     72.77000000    57.60000000    83.89000000
   N     71.90000000    55.65000000    80.28000000
   C     71.92000000    54.41000000    79.53000000
   C     73.00000000    53.43000000    79.97000000
   O     72.84000000    52.23000000    79.72000000
   C     72.25000000    54.77000000    78.08000000
   H     72.17000000    56.51000000    79.83000000
   H     70.93000000    53.96000000    79.56000000
   H     73.24000000    55.23000000    78.05000000
   H     72.26000000    53.88000000    77.45000000
   H     71.54000000    55.51000000    77.73000000
   N     74.08000000    53.90000000    80.61000000
   C     75.05000000    53.08000000    81.30000000
   C     74.66000000    52.67000000    82.72000000
   O     75.15000000    51.64000000    83.18000000
   C     76.40000000    53.76000000    81.17000000
   H     74.28000000    54.88000000    80.55000000
   H     75.20000000    52.17000000    80.72000000
   H     76.23000000    54.63000000    81.80000000
   H     77.16000000    53.11000000    81.61000000
   H     76.52000000    53.93000000    80.10000000
   N     73.67000000    53.34000000    83.33000000
   C     72.96000000    53.02000000    84.55000000
   C     71.91000000    51.98000000    84.20000000
   O     71.93000000    50.94000000    84.86000000
   C     72.34000000    54.30000000    85.10000000
   C     73.36000000    55.24000000    85.73000000
   C     72.69000000    56.51000000    86.25000000
   O     73.01000000    56.90000000    87.39000000
   O     71.95000000    57.16000000    85.49000000
   H     73.37000000    54.12000000    82.77000000
   H     73.66000000    52.68000000    85.32000000
   H     71.63000000    54.05000000    85.89000000
   H     71.69000000    54.82000000    84.40000000
   H     74.02000000    55.53000000    84.91000000
   H     73.95000000    54.78000000    86.52000000
   N     71.23000000    52.17000000    83.07000000
   C     70.38000000    51.10000000    82.57000000
   H     69.46400000    51.52600000    82.16100000
   H     70.90600000    50.55300000    81.78800000
   H     70.13200000    50.42100000    83.38600000
   H     71.21000000    53.04000000    82.57000000
  Ca     71.94000000    59.22000000    87.32000000
   O     71.83000000    60.16000000    84.94000000
   H     72.60000000    60.33000000    84.41000000
   H     71.09000000    60.42000000    84.39000000

Ca 1.70



