%chk=holoCaM_loop3_97.0.chk
%nprocshared=48
%mem=10GB
%nosave
#b3lyp/svp scf=(tight,noincore) Test 
#IOP(5/87=12) Density=Current Pop=(MK,readradii) iop(6/33=2) iop(6/42=6)

holoCaM_loop3_97.0 

   0   1
   C     85.89000000    36.30000000    23.58000000
   C     87.23000000    36.03000000    22.92000000
   O     87.84000000    35.02000000    23.28000000
   H     85.12600000    35.67200000    23.12100000
   H     85.95600000    36.07200000    24.64400000
   H     85.62400000    37.34900000    23.44900000
   N     87.63000000    36.92000000    22.01000000
   C     88.80000000    36.68000000    21.18000000
   C     90.05000000    37.17000000    21.90000000
   O     90.39000000    38.34000000    21.75000000
   C     88.59000000    37.36000000    19.83000000
   C     89.76000000    37.15000000    18.89000000
   O     89.74000000    37.90000000    17.88000000
   O     90.63000000    36.27000000    19.09000000
   H     87.00000000    37.64000000    21.68000000
   H     88.89000000    35.60000000    21.09000000
   H     88.50000000    38.44000000    19.94000000
   H     87.66000000    37.06000000    19.34000000
   N     90.65000000    36.29000000    22.70000000
   C     91.58000000    36.64000000    23.76000000
   C     92.86000000    37.27000000    23.24000000
   O     93.60000000    37.89000000    24.01000000
   C     91.79000000    35.54000000    24.79000000
   C     90.51000000    34.92000000    25.37000000
   C     89.61000000    35.91000000    26.10000000
   C     88.31000000    35.30000000    26.60000000
   N     87.59000000    36.29000000    27.41000000
   H     90.32000000    35.34000000    22.63000000
   H     91.13000000    37.54000000    24.18000000
   H     92.39000000    35.89000000    25.63000000
   H     92.34000000    34.69000000    24.39000000
   H     90.73000000    34.10000000    26.05000000
   H     89.88000000    34.47000000    24.61000000
   H     89.29000000    36.70000000    25.42000000
   H     90.07000000    36.35000000    26.98000000
   H     88.50000000    34.52000000    27.35000000
   H     87.64000000    34.88000000    25.84000000
   H     87.41000000    37.12000000    26.87000000
   H     86.69000000    36.00000000    27.76000000
   H     88.13000000    36.60000000    28.21000000
   N     93.19000000    37.00000000    21.98000000
   C     94.37000000    37.53000000    21.32000000
   C     94.17000000    38.55000000    20.21000000
   O     95.07000000    39.28000000    19.81000000
   C     95.21000000    36.32000000    20.89000000
   C     94.43000000    35.36000000    20.00000000
   O     93.89000000    35.79000000    18.96000000
   O     94.21000000    34.16000000    20.30000000
   H     92.54000000    36.37000000    21.53000000
   H     95.04000000    38.02000000    22.03000000
   H     95.56000000    35.80000000    21.78000000
   H     96.10000000    36.59000000    20.33000000
   N     92.90000000    38.71000000    19.81000000
   C     92.54000000    39.75000000    18.87000000
   C     92.56000000    39.44000000    17.39000000
   O     92.21000000    40.33000000    16.62000000
   H     92.21000000    38.14000000    20.27000000
   H     93.21000000    40.59000000    19.09000000
   H     91.52000000    40.06000000    19.07000000
   N     92.91000000    38.22000000    16.96000000
   C     93.28000000    37.89000000    15.60000000
   C     92.12000000    37.71000000    14.63000000
   O     92.38000000    37.70000000    13.43000000
   C     94.34000000    36.79000000    15.55000000
   C     93.78000000    35.43000000    15.94000000
   N     94.60000000    34.38000000    15.95000000
   O     92.61000000    35.19000000    16.23000000
   H     93.06000000    37.46000000    17.61000000
   H     93.86000000    38.70000000    15.16000000
   H     95.09000000    37.11000000    16.26000000
   H     94.80000000    36.71000000    14.56000000
   H     95.58000000    34.45000000    15.68000000
   H     94.25000000    33.46000000    16.17000000
   N     90.90000000    37.63000000    15.16000000
   C     89.76000000    37.63000000    14.26000000
   C     88.91000000    36.37000000    14.15000000
   O     87.84000000    36.39000000    13.55000000
   H     90.78000000    37.59000000    16.16000000
   H     90.04000000    37.96000000    13.26000000
   H     89.16000000    38.43000000    14.68000000
   N     89.40000000    35.30000000    14.77000000
   C     88.86000000    33.95000000    14.79000000
   C     89.08000000    33.23000000    16.11000000
   O     89.97000000    33.54000000    16.90000000
   C     89.45000000    33.07000000    13.69000000
   C     90.92000000    33.26000000    13.43000000
   C     91.83000000    32.44000000    14.10000000
   C     91.35000000    34.32000000    12.62000000
   C     93.21000000    32.63000000    13.93000000
   C     92.72000000    34.42000000    12.36000000
   C     93.64000000    33.51000000    12.92000000
   O     94.95000000    33.58000000    12.54000000
   H     90.20000000    35.46000000    15.37000000
   H     87.79000000    33.99000000    14.59000000
   H     88.95000000    33.35000000    12.76000000
   H     89.19000000    32.02000000    13.82000000
   H     91.50000000    31.68000000    14.80000000
   H     90.57000000    34.89000000    12.13000000
   H     93.86000000    31.93000000    14.44000000
   H     93.13000000    35.18000000    11.71000000
   H     95.15000000    34.28000000    11.92000000
   N     88.26000000    32.23000000    16.42000000
   C     88.25000000    31.54000000    17.69000000
   C     88.98000000    30.22000000    17.49000000
   O     88.84000000    29.57000000    16.46000000
   C     86.82000000    31.30000000    18.18000000
   C     86.17000000    32.63000000    18.57000000
   C     86.60000000    30.29000000    19.30000000
   C     86.88000000    33.53000000    19.56000000
   H     87.54000000    31.99000000    15.74000000
   H     88.79000000    32.06000000    18.48000000
   H     86.25000000    30.90000000    17.35000000
   H     85.15000000    32.43000000    18.90000000
   H     86.11000000    33.23000000    17.66000000
   H     86.87000000    29.31000000    18.89000000
   H     87.14000000    30.59000000    20.20000000
   H     85.57000000    30.23000000    19.64000000
   H     87.80000000    33.97000000    19.17000000
   H     86.22000000    34.36000000    19.80000000
   H     87.11000000    32.86000000    20.39000000
   N     89.70000000    29.78000000    18.52000000
   C     90.21000000    28.42000000    18.55000000
   C     89.67000000    27.51000000    19.64000000
   O     88.86000000    27.98000000    20.44000000
   C     91.72000000    28.59000000    18.72000000
   O     92.05000000    29.03000000    20.02000000
   H     89.78000000    30.35000000    19.35000000
   H     90.13000000    27.96000000    17.57000000
   H     92.02000000    29.34000000    17.99000000
   H     92.22000000    27.65000000    18.52000000
   H     92.16000000    29.98000000    20.11000000
   N     90.10000000    26.25000000    19.75000000
   C     89.77000000    25.27000000    20.77000000
   C     90.23000000    25.73000000    22.14000000
   O     89.67000000    25.33000000    23.16000000
   C     90.41000000    23.93000000    20.39000000
   H     90.81000000    25.96000000    19.10000000
   H     88.71000000    25.04000000    20.87000000
   H     91.47000000    23.98000000    20.65000000
   H     90.05000000    23.10000000    20.99000000
   H     90.03000000    23.76000000    19.38000000
   N     91.18000000    26.65000000    22.30000000
   C     91.52000000    27.39000000    23.50000000
   C     90.42000000    28.35000000    23.93000000
   O     90.13000000    28.48000000    25.11000000
   C     92.87000000    28.09000000    23.35000000
   H     91.70000000    26.80000000    21.45000000
   H     91.70000000    26.65000000    24.28000000
   H     93.28000000    28.46000000    24.29000000
   H     93.55000000    27.30000000    23.05000000
   H     92.86000000    28.88000000    22.59000000
   N     89.75000000    28.99000000    22.97000000
   C     88.85000000    30.11000000    23.18000000
   C     87.40000000    29.62000000    23.21000000
   O     86.58000000    30.25000000    23.88000000
   C     89.07000000    31.06000000    22.00000000
   C     90.27000000    31.94000000    22.32000000
   C     90.79000000    32.55000000    21.03000000
   O     90.81000000    33.80000000    20.91000000
   O     91.09000000    31.88000000    20.02000000
   H     90.01000000    28.81000000    22.01000000
   H     89.09000000    30.54000000    24.15000000
   H     88.24000000    31.75000000    21.87000000
   H     89.25000000    30.40000000    21.15000000
   H     91.11000000    31.38000000    22.73000000
   H     90.02000000    32.81000000    22.94000000
   N     87.11000000    28.50000000    22.54000000
   C     85.82000000    27.86000000    22.55000000
   H     85.09900000    28.48900000    22.02800000
   H     85.88900000    26.89500000    22.04800000
   H     85.49500000    27.71300000    23.58000000
   H     87.81000000    28.05000000    21.97000000
  Ca     91.93000000    34.09000000    18.64000000
   O     93.07000000    32.06000000    17.22000000
   H     93.77000000    31.71000000    17.77000000
   H     93.09000000    31.52000000    16.44000000

Ca 1.70



