%chk=holoCaM_loop3_88.0.chk
%nprocshared=48
%mem=10GB
%nosave
#b3lyp/svp scf=(tight,noincore) Test 
#IOP(5/87=12) Density=Current Pop=(MK,readradii) iop(6/33=2) iop(6/42=6)

holoCaM_loop3_88.0 

   0   1
   C     47.26000000    42.80000000    25.88000000
   C     47.87000000    42.23000000    27.15000000
   O     47.58000000    42.70000000    28.25000000
   H     46.36400000    43.36800000    26.13100000
   H     47.98100000    43.45600000    25.39300000
   H     46.99500000    41.98500000    25.20600000
   N     48.70000000    41.18000000    27.12000000
   C     49.31000000    40.57000000    28.28000000
   C     50.50000000    41.37000000    28.79000000
   O     51.28000000    41.88000000    28.00000000
   C     49.54000000    39.14000000    27.79000000
   C     50.13000000    38.30000000    28.91000000
   O     50.66000000    38.77000000    29.94000000
   O     50.11000000    37.06000000    28.77000000
   H     48.99000000    40.83000000    26.22000000
   H     48.55000000    40.46000000    29.05000000
   H     50.26000000    39.08000000    26.97000000
   H     48.59000000    38.72000000    27.47000000
   N     50.79000000    41.57000000    30.08000000
   C     51.90000000    42.39000000    30.54000000
   C     53.29000000    41.79000000    30.42000000
   O     54.24000000    42.47000000    30.03000000
   C     51.70000000    42.70000000    32.02000000
   C     50.54000000    43.63000000    32.38000000
   C     50.65000000    45.04000000    31.80000000
   C     52.08000000    45.53000000    32.03000000
   N     52.16000000    46.89000000    31.49000000
   H     50.31000000    40.98000000    30.74000000
   H     51.95000000    43.31000000    29.95000000
   H     52.62000000    43.17000000    32.36000000
   H     51.72000000    41.78000000    32.60000000
   H     50.60000000    43.81000000    33.46000000
   H     49.57000000    43.21000000    32.15000000
   H     49.96000000    45.63000000    32.40000000
   H     50.41000000    45.04000000    30.74000000
   H     52.79000000    44.95000000    31.45000000
   H     52.39000000    45.45000000    33.07000000
   H     51.31000000    47.35000000    31.80000000
   H     52.96000000    47.45000000    31.75000000
   H     51.89000000    46.84000000    30.51000000
   N     53.36000000    40.47000000    30.63000000
   C     54.48000000    39.59000000    30.40000000
   C     54.43000000    38.66000000    29.20000000
   O     55.45000000    38.08000000    28.82000000
   C     54.78000000    38.77000000    31.65000000
   C     53.66000000    37.90000000    32.21000000
   O     53.60000000    37.74000000    33.45000000
   O     52.76000000    37.53000000    31.42000000
   H     52.48000000    39.97000000    30.66000000
   H     55.38000000    40.17000000    30.19000000
   H     55.16000000    39.44000000    32.42000000
   H     55.63000000    38.13000000    31.43000000
   N     53.29000000    38.50000000    28.51000000
   C     53.23000000    37.73000000    27.28000000
   C     53.32000000    36.23000000    27.50000000
   O     53.65000000    35.50000000    26.57000000
   H     52.46000000    38.92000000    28.88000000
   H     54.10000000    38.05000000    26.69000000
   H     52.24000000    37.94000000    26.87000000
   N     53.05000000    35.81000000    28.74000000
   C     53.09000000    34.39000000    29.03000000
   C     51.98000000    33.47000000    28.53000000
   O     52.02000000    32.27000000    28.79000000
   C     53.38000000    34.17000000    30.52000000
   C     52.23000000    34.28000000    31.50000000
   N     52.33000000    33.82000000    32.75000000
   O     51.18000000    34.82000000    31.14000000
   H     52.88000000    36.50000000    29.46000000
   H     53.97000000    33.99000000    28.54000000
   H     54.09000000    34.87000000    30.96000000
   H     53.78000000    33.16000000    30.68000000
   H     53.08000000    33.20000000    33.00000000
   H     51.69000000    34.10000000    33.47000000
   N     51.09000000    34.05000000    27.73000000
   C     49.93000000    33.38000000    27.18000000
   C     48.66000000    33.38000000    28.03000000
   O     47.79000000    32.62000000    27.62000000
   H     51.12000000    35.05000000    27.63000000
   H     50.11000000    32.41000000    26.71000000
   H     49.75000000    34.04000000    26.34000000
   N     48.57000000    34.18000000    29.09000000
   C     47.40000000    34.26000000    29.94000000
   C     47.09000000    35.73000000    30.18000000
   O     48.02000000    36.47000000    30.47000000
   C     47.43000000    33.44000000    31.23000000
   C     47.85000000    32.00000000    31.12000000
   C     49.19000000    31.69000000    31.35000000
   C     46.96000000    31.04000000    30.62000000
   C     49.59000000    30.35000000    31.21000000
   C     47.39000000    29.73000000    30.36000000
   C     48.70000000    29.37000000    30.72000000
   O     49.10000000    28.06000000    30.70000000
   H     49.39000000    34.75000000    29.24000000
   H     46.53000000    33.89000000    29.41000000
   H     46.42000000    33.55000000    31.64000000
   H     48.15000000    33.95000000    31.88000000
   H     49.91000000    32.42000000    31.68000000
   H     45.94000000    31.31000000    30.40000000
   H     50.59000000    30.16000000    31.57000000
   H     46.66000000    29.00000000    30.04000000
   H     48.34000000    27.50000000    30.55000000
   N     45.82000000    36.10000000    30.36000000
   C     45.52000000    37.38000000    30.98000000
   C     44.71000000    37.13000000    32.24000000
   O     43.77000000    36.34000000    32.31000000
   C     44.80000000    38.35000000    30.04000000
   C     45.73000000    39.01000000    29.02000000
   C     43.96000000    39.41000000    30.75000000
   C     45.02000000    39.30000000    27.71000000
   H     45.12000000    35.41000000    30.12000000
   H     46.45000000    37.82000000    31.32000000
   H     44.06000000    37.73000000    29.55000000
   H     46.53000000    38.31000000    28.80000000
   H     46.22000000    39.89000000    29.44000000
   H     43.39000000    39.91000000    29.96000000
   H     43.24000000    38.96000000    31.44000000
   H     44.67000000    40.04000000    31.28000000
   H     44.33000000    40.12000000    27.88000000
   H     45.78000000    39.58000000    26.98000000
   H     44.53000000    38.46000000    27.21000000
   N     44.97000000    37.90000000    33.30000000
   C     44.31000000    37.81000000    34.58000000
   C     44.13000000    39.24000000    35.06000000
   O     44.60000000    40.22000000    34.48000000
   C     45.05000000    36.96000000    35.61000000
   O     46.29000000    37.57000000    35.90000000
   H     45.75000000    38.51000000    33.13000000
   H     43.29000000    37.42000000    34.51000000
   H     45.30000000    35.99000000    35.18000000
   H     44.52000000    36.92000000    36.56000000
   H     46.66000000    37.12000000    36.66000000
   N     43.30000000    39.36000000    36.09000000
   C     42.78000000    40.58000000    36.67000000
   C     43.75000000    41.75000000    36.71000000
   O     43.32000000    42.84000000    36.34000000
   C     42.29000000    40.23000000    38.07000000
   H     42.96000000    38.52000000    36.55000000
   H     41.99000000    40.99000000    36.03000000
   H     41.38000000    39.64000000    38.01000000
   H     43.02000000    39.68000000    38.69000000
   H     41.98000000    41.12000000    38.60000000
   N     44.98000000    41.58000000    37.21000000
   C     45.96000000    42.63000000    37.39000000
   C     46.38000000    43.20000000    36.05000000
   O     46.72000000    44.38000000    35.96000000
   C     47.19000000    41.95000000    38.00000000
   H     45.20000000    40.66000000    37.57000000
   H     45.65000000    43.48000000    37.99000000
   H     48.10000000    42.53000000    37.84000000
   H     47.11000000    41.51000000    38.99000000
   H     47.38000000    41.04000000    37.44000000
   N     46.63000000    42.30000000    35.09000000
   C     47.05000000    42.76000000    33.78000000
   C     45.96000000    43.40000000    32.93000000
   O     46.19000000    44.27000000    32.10000000
   C     47.55000000    41.49000000    33.09000000
   C     48.63000000    40.67000000    33.79000000
   C     49.13000000    39.54000000    32.90000000
   O     48.31000000    38.61000000    32.72000000
   O     50.32000000    39.49000000    32.52000000
   H     46.51000000    41.32000000    35.29000000
   H     47.91000000    43.42000000    33.81000000
   H     47.89000000    41.81000000    32.11000000
   H     46.71000000    40.79000000    33.06000000
   H     48.19000000    40.24000000    34.69000000
   H     49.42000000    41.31000000    34.18000000
   N     44.71000000    43.04000000    33.25000000
   C     43.53000000    43.60000000    32.63000000
   H     42.74600000    43.71300000    33.37900000
   H     43.77000000    44.57500000    32.20600000
   H     43.18400000    42.93400000    31.83900000
   H     44.64000000    42.51000000    34.11000000
  Ca     50.24000000    37.07000000    31.74000000
   O     51.40000000    36.44000000    34.02000000
   H     51.01000000    36.29000000    34.88000000
   H     52.16000000    36.99000000    34.19000000

Ca 1.70



