%chk=holoCaM_loop3_61.0.chk
%nprocshared=48
%mem=10GB
%nosave
#b3lyp/svp scf=(tight,noincore) Test 
#IOP(5/87=12) Density=Current Pop=(MK,readradii) iop(6/33=2) iop(6/42=6)

holoCaM_loop3_61.0 

   0   1
   C     70.26000000    52.09000000    90.69000000
   C     70.08000000    52.52000000    92.14000000
   O     70.28000000    51.75000000    93.07000000
   H     71.31400000    51.88400000    90.50100000
   H     69.67500000    51.19000000    90.50200000
   H     69.92200000    52.88800000    90.02900000
   N     69.74000000    53.79000000    92.38000000
   C     69.35000000    54.30000000    93.68000000
   C     68.06000000    53.66000000    94.15000000
   O     66.98000000    53.70000000    93.57000000
   C     69.34000000    55.82000000    93.51000000
   C     69.16000000    56.56000000    94.82000000
   O     69.41000000    57.79000000    94.87000000
   O     68.93000000    55.97000000    95.90000000
   H     69.72000000    54.43000000    91.60000000
   H     70.20000000    54.19000000    94.37000000
   H     68.49000000    56.15000000    92.92000000
   H     70.24000000    56.18000000    93.02000000
   N     68.19000000    52.96000000    95.29000000
   C     67.18000000    52.23000000    96.01000000
   C     66.50000000    52.90000000    97.20000000
   O     65.60000000    52.26000000    97.75000000
   C     67.73000000    50.87000000    96.46000000
   C     68.32000000    50.05000000    95.32000000
   C     67.41000000    49.87000000    94.11000000
   C     67.85000000    48.80000000    93.12000000
   N     66.85000000    48.51000000    92.07000000
   H     69.14000000    52.89000000    95.63000000
   H     66.30000000    52.00000000    95.42000000
   H     66.92000000    50.35000000    96.97000000
   H     68.41000000    50.91000000    97.32000000
   H     68.75000000    49.11000000    95.67000000
   H     69.18000000    50.59000000    94.94000000
   H     67.31000000    50.82000000    93.59000000
   H     66.43000000    49.58000000    94.49000000
   H     68.01000000    47.87000000    93.67000000
   H     68.78000000    49.09000000    92.63000000
   H     65.90000000    48.59000000    92.39000000
   H     66.92000000    49.25000000    91.38000000
   H     67.17000000    47.63000000    91.71000000
   N     66.81000000    54.17000000    97.46000000
   C     66.10000000    54.90000000    98.49000000
   C     65.89000000    56.36000000    98.11000000
   O     65.45000000    57.17000000    98.92000000
   C     66.76000000    54.73000000    99.85000000
   C     68.20000000    55.23000000    99.84000000
   O     68.93000000    54.81000000   100.77000000
   O     68.63000000    55.92000000    98.90000000
   H     67.56000000    54.60000000    96.94000000
   H     65.09000000    54.50000000    98.61000000
   H     66.80000000    53.68000000   100.14000000
   H     66.17000000    55.13000000   100.67000000
   N     66.12000000    56.69000000    96.83000000
   C     65.77000000    57.96000000    96.25000000
   C     66.50000000    59.15000000    96.87000000
   O     66.09000000    60.24000000    96.50000000
   H     66.48000000    55.97000000    96.22000000
   H     64.69000000    58.09000000    96.31000000
   H     66.10000000    57.93000000    95.21000000
   N     67.55000000    58.90000000    97.65000000
   C     68.17000000    59.97000000    98.40000000
   C     69.12000000    60.86000000    97.60000000
   O     69.63000000    61.84000000    98.14000000
   C     68.89000000    59.31000000    99.57000000
   C     70.27000000    58.78000000    99.21000000
   N     71.27000000    58.79000000   100.10000000
   O     70.61000000    58.36000000    98.11000000
   H     67.86000000    57.95000000    97.81000000
   H     67.36000000    60.60000000    98.78000000
   H     68.31000000    58.52000000   100.03000000
   H     69.00000000    60.07000000   100.35000000
   H     71.02000000    59.08000000   101.03000000
   H     72.13000000    58.25000000   100.02000000
   N     69.29000000    60.52000000    96.32000000
   C     70.18000000    61.25000000    95.45000000
   C     71.61000000    60.79000000    95.21000000
   O     72.37000000    61.58000000    94.64000000
   H     68.87000000    59.65000000    96.02000000
   H     70.26000000    62.24000000    95.91000000
   H     69.70000000    61.26000000    94.47000000
   N     71.93000000    59.56000000    95.61000000
   C     73.25000000    58.98000000    95.39000000
   C     73.16000000    57.50000000    95.09000000
   O     72.25000000    56.83000000    95.57000000
   C     74.13000000    59.15000000    96.63000000
   C     74.33000000    60.57000000    97.08000000
   C     73.92000000    60.96000000    98.36000000
   C     75.08000000    61.45000000    96.29000000
   C     74.28000000    62.21000000    98.89000000
   C     75.37000000    62.73000000    96.77000000
   C     74.96000000    63.12000000    98.06000000
   O     75.30000000    64.35000000    98.55000000
   H     71.19000000    59.06000000    96.08000000
   H     73.67000000    59.38000000    94.47000000
   H     75.03000000    58.56000000    96.44000000
   H     73.57000000    58.63000000    97.41000000
   H     73.15000000    60.32000000    98.76000000
   H     75.48000000    61.18000000    95.32000000
   H     73.84000000    62.47000000    99.84000000
   H     75.85000000    63.52000000    96.20000000
   H     75.78000000    64.84000000    97.88000000
   N     74.09000000    56.91000000    94.34000000
   C     74.13000000    55.47000000    94.19000000
   C     75.32000000    54.99000000    95.01000000
   O     76.44000000    55.38000000    94.72000000
   C     74.19000000    55.11000000    92.70000000
   C     73.06000000    55.73000000    91.87000000
   C     74.37000000    53.61000000    92.49000000
   C     73.38000000    55.76000000    90.38000000
   H     74.88000000    57.44000000    94.01000000
   H     73.26000000    54.99000000    94.63000000
   H     75.16000000    55.50000000    92.41000000
   H     72.97000000    56.76000000    92.21000000
   H     72.19000000    55.08000000    91.94000000
   H     74.54000000    53.44000000    91.43000000
   H     75.19000000    53.21000000    93.08000000
   H     73.49000000    53.13000000    92.92000000
   H     74.32000000    56.28000000    90.22000000
   H     73.48000000    54.78000000    89.91000000
   H     72.63000000    56.31000000    89.81000000
   N     75.05000000    54.26000000    96.10000000
   C     76.03000000    53.59000000    96.93000000
   C     76.55000000    52.30000000    96.31000000
   O     76.06000000    51.81000000    95.30000000
   C     75.37000000    53.35000000    98.29000000
   O     74.21000000    52.54000000    98.24000000
   H     74.09000000    53.95000000    96.16000000
   H     76.93000000    54.18000000    97.11000000
   H     74.98000000    54.28000000    98.71000000
   H     76.09000000    52.90000000    98.97000000
   H     73.61000000    53.10000000    97.73000000
   N     77.53000000    51.66000000    96.95000000
   C     78.22000000    50.47000000    96.50000000
   C     77.42000000    49.20000000    96.72000000
   O     77.56000000    48.26000000    95.94000000
   C     79.60000000    50.40000000    97.13000000
   H     77.81000000    52.00000000    97.86000000
   H     78.26000000    50.60000000    95.41000000
   H     80.05000000    49.42000000    96.93000000
   H     80.13000000    51.30000000    96.84000000
   H     79.48000000    50.36000000    98.22000000
   N     76.50000000    49.13000000    97.68000000
   C     75.54000000    48.04000000    97.72000000
   C     74.43000000    48.21000000    96.69000000
   O     73.92000000    47.19000000    96.23000000
   C     74.94000000    48.03000000    99.13000000
   H     76.37000000    49.93000000    98.28000000
   H     76.02000000    47.07000000    97.58000000
   H     75.70000000    47.82000000    99.87000000
   H     74.63000000    49.02000000    99.48000000
   H     74.22000000    47.21000000    99.20000000
   N     74.06000000    49.42000000    96.29000000
   C     72.99000000    49.67000000    95.35000000
   C     73.53000000    49.36000000    93.96000000
   O     72.95000000    48.70000000    93.11000000
   C     72.52000000    51.12000000    95.42000000
   C     71.77000000    51.42000000    96.71000000
   C     71.34000000    52.88000000    96.76000000
   O     72.26000000    53.72000000    96.89000000
   O     70.19000000    53.32000000    96.98000000
   H     74.60000000    50.20000000    96.63000000
   H     72.22000000    48.99000000    95.71000000
   H     71.94000000    51.25000000    94.50000000
   H     73.40000000    51.74000000    95.26000000
   H     72.30000000    51.06000000    97.60000000
   H     70.91000000    50.75000000    96.76000000
   N     74.80000000    49.70000000    93.69000000
   C     75.47000000    49.30000000    92.47000000
   H     76.47400000    48.94700000    92.70600000
   H     74.90700000    48.49900000    91.99100000
   H     75.53500000    50.15300000    91.79400000
   H     75.29000000    50.39000000    94.24000000
  Ca     70.88000000    55.83000000    97.59000000
   O     71.25000000    54.27000000    99.81200000
   H     71.50000000    53.51000000   100.34200000
   H     70.42000000    54.55000000   100.18200000

Ca 1.70



