%chk=holoCaM_loop3_69.0.chk
%nprocshared=48
%mem=10GB
%nosave
#b3lyp/svp scf=(tight,noincore) Test 
#IOP(5/87=12) Density=Current Pop=(MK,readradii) iop(6/33=2) iop(6/42=6)

holoCaM_loop3_69.0 

   0   1
   C     35.60000000    46.94000000    43.36000000
   C     35.70000000    46.29000000    44.73000000
   O     34.74000000    45.69000000    45.20000000
   H     35.14400000    47.92500000    43.45800000
   H     36.59700000    47.04300000    42.93200000
   H     34.98600000    46.32000000    42.70700000
   N     36.89000000    46.21000000    45.34000000
   C     37.08000000    45.72000000    46.69000000
   C     36.63000000    46.75000000    47.71000000
   O     37.34000000    47.72000000    47.97000000
   C     38.52000000    45.27000000    46.90000000
   C     38.75000000    44.74000000    48.31000000
   O     37.86000000    44.36000000    49.10000000
   O     39.95000000    44.63000000    48.66000000
   H     37.71000000    46.35000000    44.76000000
   H     36.46000000    44.82000000    46.79000000
   H     39.19000000    46.12000000    46.85000000
   H     38.96000000    44.52000000    46.24000000
   N     35.45000000    46.56000000    48.31000000
   C     34.83000000    47.56000000    49.15000000
   C     35.48000000    47.79000000    50.50000000
   O     35.56000000    48.94000000    50.94000000
   C     33.38000000    47.16000000    49.39000000
   C     32.61000000    48.24000000    50.14000000
   C     31.21000000    47.65000000    50.29000000
   C     30.14000000    48.60000000    50.81000000
   N     28.90000000    48.03000000    51.35000000
   H     34.98000000    45.68000000    48.14000000
   H     34.91000000    48.44000000    48.51000000
   H     33.29000000    46.21000000    49.92000000
   H     32.92000000    47.06000000    48.40000000
   H     32.64000000    49.13000000    49.52000000
   H     33.06000000    48.34000000    51.13000000
   H     31.32000000    46.84000000    51.01000000
   H     30.79000000    47.29000000    49.35000000
   H     29.82000000    49.20000000    49.95000000
   H     30.60000000    49.19000000    51.60000000
   H     28.33000000    47.43000000    50.77000000
   H     29.00000000    47.47000000    52.19000000
   H     28.32000000    48.79000000    51.66000000
   N     35.98000000    46.74000000    51.15000000
   C     36.69000000    46.86000000    52.41000000
   C     38.18000000    47.10000000    52.24000000
   O     38.79000000    47.85000000    53.00000000
   C     36.56000000    45.65000000    53.32000000
   C     36.53000000    44.32000000    52.57000000
   O     37.61000000    43.90000000    52.10000000
   O     35.46000000    43.74000000    52.30000000
   H     35.84000000    45.87000000    50.66000000
   H     36.46000000    47.75000000    52.99000000
   H     35.60000000    45.69000000    53.83000000
   H     37.37000000    45.54000000    54.04000000
   N     38.83000000    46.48000000    51.26000000
   C     40.20000000    46.77000000    50.91000000
   C     41.12000000    45.67000000    51.42000000
   O     42.34000000    45.84000000    51.48000000
   H     38.31000000    45.89000000    50.62000000
   H     40.51000000    47.61000000    51.53000000
   H     40.31000000    46.91000000    49.83000000
   N     40.62000000    44.46000000    51.68000000
   C     41.40000000    43.35000000    52.20000000
   C     42.20000000    42.57000000    51.17000000
   O     43.10000000    41.79000000    51.48000000
   C     40.44000000    42.43000000    52.95000000
   C     39.50000000    41.57000000    52.12000000
   N     38.98000000    40.49000000    52.70000000
   O     39.20000000    41.83000000    50.96000000
   H     39.64000000    44.38000000    51.47000000
   H     42.12000000    43.78000000    52.90000000
   H     39.86000000    43.10000000    53.59000000
   H     41.03000000    41.74000000    53.55000000
   H     39.09000000    40.28000000    53.68000000
   H     38.33000000    39.86000000    52.25000000
   N     41.98000000    42.82000000    49.88000000
   C     42.70000000    42.21000000    48.78000000
   C     41.83000000    41.34000000    47.88000000
   O     42.34000000    40.75000000    46.93000000
   H     41.22000000    43.45000000    49.65000000
   H     43.61000000    41.77000000    49.18000000
   H     43.02000000    43.01000000    48.11000000
   N     40.54000000    41.18000000    48.18000000
   C     39.69000000    40.27000000    47.44000000
   C     38.31000000    40.87000000    47.23000000
   O     37.84000000    41.71000000    47.99000000
   C     39.55000000    38.95000000    48.20000000
   C     40.86000000    38.24000000    48.43000000
   C     41.59000000    38.40000000    49.62000000
   C     41.40000000    37.40000000    47.44000000
   C     42.89000000    37.92000000    49.78000000
   C     42.71000000    36.92000000    47.52000000
   C     43.39000000    37.13000000    48.73000000
   O     44.67000000    36.67000000    48.84000000
   H     40.24000000    41.58000000    49.06000000
   H     40.19000000    40.08000000    46.49000000
   H     38.86000000    38.27000000    47.69000000
   H     39.13000000    39.16000000    49.18000000
   H     41.22000000    39.04000000    50.41000000
   H     40.80000000    37.33000000    46.55000000
   H     43.37000000    37.94000000    50.75000000
   H     43.13000000    36.29000000    46.74000000
   H     44.84000000    36.01000000    48.17000000
   N     37.62000000    40.34000000    46.21000000
   C     36.23000000    40.67000000    46.00000000
   C     35.34000000    39.44000000    46.08000000
   O     35.62000000    38.44000000    45.43000000
   C     36.02000000    41.47000000    44.71000000
   C     36.89000000    42.73000000    44.67000000
   C     34.56000000    41.84000000    44.46000000
   C     37.43000000    42.96000000    43.26000000
   H     38.16000000    39.69000000    45.65000000
   H     35.92000000    41.34000000    46.80000000
   H     36.36000000    40.80000000    43.93000000
   H     37.83000000    42.66000000    45.22000000
   H     36.26000000    43.59000000    44.87000000
   H     34.25000000    42.52000000    45.26000000
   H     34.52000000    42.32000000    43.49000000
   H     34.01000000    40.90000000    44.40000000
   H     36.55000000    43.18000000    42.65000000
   H     38.15000000    43.77000000    43.28000000
   H     38.00000000    42.12000000    42.89000000
   N     34.23000000    39.51000000    46.82000000
   C     33.09000000    38.61000000    46.84000000
   C     31.81000000    39.32000000    46.43000000
   O     31.68000000    40.52000000    46.21000000
   C     33.09000000    38.00000000    48.24000000
   O     32.83000000    39.11000000    49.08000000
   H     34.11000000    40.36000000    47.35000000
   H     33.26000000    37.90000000    46.03000000
   H     34.05000000    37.51000000    48.40000000
   H     32.33000000    37.24000000    48.42000000
   H     33.17000000    38.86000000    49.94000000
   N     30.76000000    38.51000000    46.27000000
   C     29.57000000    38.97000000    45.57000000
   C     28.86000000    40.11000000    46.28000000
   O     28.39000000    41.00000000    45.57000000
   C     28.72000000    37.79000000    45.10000000
   H     30.81000000    37.53000000    46.51000000
   H     29.93000000    39.46000000    44.67000000
   H     28.38000000    37.39000000    46.05000000
   H     27.88000000    37.93000000    44.43000000
   H     29.38000000    37.10000000    44.58000000
   N     28.90000000    40.15000000    47.61000000
   C     28.22000000    41.23000000    48.30000000
   C     28.89000000    42.57000000    48.07000000
   O     28.26000000    43.61000000    48.28000000
   C     28.29000000    40.83000000    49.78000000
   H     29.26000000    39.38000000    48.15000000
   H     27.18000000    41.31000000    47.97000000
   H     29.30000000    40.59000000    50.11000000
   H     27.90000000    41.67000000    50.35000000
   H     27.65000000    39.96000000    49.94000000
   N     30.10000000    42.66000000    47.52000000
   C     30.85000000    43.86000000    47.19000000
   C     30.66000000    44.18000000    45.71000000
   O     30.38000000    45.32000000    45.35000000
   C     32.31000000    43.66000000    47.59000000
   C     32.44000000    43.20000000    49.03000000
   C     33.86000000    42.77000000    49.37000000
   O     34.01000000    41.90000000    50.26000000
   O     34.87000000    43.31000000    48.88000000
   H     30.60000000    41.79000000    47.44000000
   H     30.48000000    44.72000000    47.76000000
   H     32.89000000    44.57000000    47.47000000
   H     32.64000000    42.87000000    46.92000000
   H     31.74000000    42.38000000    49.22000000
   H     32.05000000    44.00000000    49.67000000
   N     30.81000000    43.15000000    44.87000000
   C     30.45000000    43.26000000    43.47000000
   H     29.61700000    43.95400000    43.36300000
   H     31.30400000    43.62900000    42.90200000
   H     30.15700000    42.28100000    43.09200000
   H     30.92000000    42.23000000    45.25000000
  Ca     36.64000000    42.39000000    50.32000000
   O     36.18000000    39.90000000    49.28000000
   H     35.35000000    39.76000000    49.73000000
   H     36.46000000    39.02000000    49.02000000

Ca 1.70



