%chk=holoCaM_loop3_79.0.chk
%nprocshared=48
%mem=10GB
%nosave
#b3lyp/svp scf=(tight,noincore) Test 
#IOP(5/87=12) Density=Current Pop=(MK,readradii) iop(6/33=2) iop(6/42=6)

holoCaM_loop3_79.0 

   0   1
   C     68.47000000    64.38000000    24.40000000
   C     69.01000000    65.41000000    25.38000000
   O     69.78000000    65.14000000    26.30000000
   H     67.56100000    64.76200000    23.93600000
   H     69.21600000    64.18500000    23.62900000
   H     68.24500000    63.45500000    24.93100000
   N     68.70000000    66.68000000    25.10000000
   C     69.21000000    67.82000000    25.82000000
   C     68.30000000    68.05000000    27.02000000
   O     67.07000000    68.02000000    26.98000000
   C     69.22000000    69.04000000    24.90000000
   C     70.17000000    70.04000000    25.54000000
   O     71.17000000    70.44000000    24.91000000
   O     69.91000000    70.53000000    26.67000000
   H     68.06000000    66.84000000    24.33000000
   H     70.21000000    67.46000000    26.08000000
   H     68.26000000    69.55000000    24.90000000
   H     69.62000000    68.80000000    23.92000000
   N     68.88000000    68.27000000    28.20000000
   C     68.24000000    68.39000000    29.49000000
   C     67.93000000    69.79000000    30.00000000
   O     67.07000000    70.03000000    30.85000000
   C     69.02000000    67.66000000    30.58000000
   C     69.21000000    66.16000000    30.38000000
   C     69.82000000    65.40000000    31.55000000
   C     69.79000000    63.91000000    31.26000000
   N     70.20000000    63.05000000    32.39000000
   H     69.89000000    68.22000000    28.11000000
   H     67.21000000    68.02000000    29.48000000
   H     68.51000000    67.87000000    31.51000000
   H     70.02000000    68.09000000    30.55000000
   H     69.68000000    65.96000000    29.41000000
   H     68.19000000    65.77000000    30.37000000
   H     69.15000000    65.60000000    32.39000000
   H     70.82000000    65.80000000    31.72000000
   H     70.31000000    63.57000000    30.37000000
   H     68.76000000    63.73000000    30.94000000
   H     69.80000000    63.38000000    33.26000000
   H     70.08000000    62.09000000    32.10000000
   H     71.20000000    63.00000000    32.55000000
   N     68.54000000    70.86000000    29.48000000
   C     68.10000000    72.23000000    29.59000000
   C     67.62000000    72.92000000    28.33000000
   O     67.13000000    74.04000000    28.47000000
   C     69.21000000    72.90000000    30.40000000
   C     70.54000000    72.96000000    29.68000000
   O     70.62000000    72.73000000    28.45000000
   O     71.58000000    73.27000000    30.31000000
   H     69.17000000    70.56000000    28.75000000
   H     67.19000000    72.22000000    30.20000000
   H     69.30000000    72.32000000    31.32000000
   H     68.96000000    73.94000000    30.64000000
   N     67.97000000    72.41000000    27.15000000
   C     67.37000000    72.95000000    25.95000000
   C     68.36000000    73.81000000    25.17000000
   O     68.11000000    74.18000000    24.03000000
   H     68.67000000    71.68000000    27.10000000
   H     66.57000000    73.66000000    26.18000000
   H     66.97000000    72.15000000    25.33000000
   N     69.46000000    74.24000000    25.79000000
   C     70.39000000    75.25000000    25.32000000
   C     70.94000000    74.92000000    23.94000000
   O     71.22000000    75.86000000    23.19000000
   C     71.50000000    75.36000000    26.35000000
   C     72.52000000    74.23000000    26.51000000
   N     73.52000000    74.45000000    27.36000000
   O     72.34000000    73.12000000    26.01000000
   H     69.55000000    73.85000000    26.71000000
   H     69.94000000    76.24000000    25.18000000
   H     71.10000000    75.64000000    27.33000000
   H     72.07000000    76.25000000    26.10000000
   H     73.51000000    75.30000000    27.91000000
   H     74.13000000    73.69000000    27.60000000
   N     70.82000000    73.66000000    23.51000000
   C     71.18000000    73.25000000    22.17000000
   C     72.58000000    72.65000000    22.16000000
   O     73.10000000    72.38000000    21.08000000
   H     70.36000000    73.02000000    24.15000000
   H     71.21000000    74.18000000    21.61000000
   H     70.38000000    72.63000000    21.76000000
   N     73.18000000    72.31000000    23.30000000
   C     74.53000000    71.79000000    23.35000000
   C     74.58000000    70.65000000    24.35000000
   O     74.17000000    70.72000000    25.51000000
   C     75.52000000    72.88000000    23.77000000
   C     75.26000000    74.26000000    23.23000000
   C     75.54000000    75.33000000    24.09000000
   C     74.98000000    74.55000000    21.89000000
   C     75.08000000    76.61000000    23.73000000
   C     74.66000000    75.85000000    21.46000000
   C     74.69000000    76.89000000    22.41000000
   O     74.26000000    78.13000000    22.04000000
   H     72.66000000    72.34000000    24.16000000
   H     74.86000000    71.38000000    22.40000000
   H     76.52000000    72.58000000    23.45000000
   H     75.53000000    72.91000000    24.85000000
   H     75.96000000    75.14000000    25.06000000
   H     75.01000000    73.74000000    21.18000000
   H     75.14000000    77.48000000    24.37000000
   H     74.31000000    76.09000000    20.46000000
   H     74.23000000    78.23000000    21.09000000
   N     75.05000000    69.45000000    23.99000000
   C     75.24000000    68.26000000    24.79000000
   C     76.56000000    68.51000000    25.51000000
   O     77.56000000    68.93000000    24.94000000
   C     75.23000000    67.02000000    23.89000000
   C     73.80000000    66.78000000    23.40000000
   C     75.71000000    65.79000000    24.65000000
   C     72.65000000    66.52000000    24.37000000
   H     75.31000000    69.32000000    23.02000000
   H     74.40000000    68.31000000    25.48000000
   H     75.85000000    67.16000000    23.01000000
   H     73.87000000    65.92000000    22.74000000
   H     73.48000000    67.63000000    22.79000000
   H     76.79000000    65.87000000    24.81000000
   H     75.12000000    65.78000000    25.56000000
   H     75.55000000    64.87000000    24.09000000
   H     71.71000000    66.90000000    23.99000000
   H     72.50000000    65.47000000    24.63000000
   H     72.84000000    66.95000000    25.35000000
   N     76.53000000    68.20000000    26.81000000
   C     77.62000000    68.03000000    27.75000000
   C     77.99000000    66.57000000    27.94000000
   O     77.19000000    65.67000000    27.66000000
   C     77.17000000    68.63000000    29.08000000
   O     76.05000000    67.97000000    29.63000000
   H     75.60000000    68.08000000    27.19000000
   H     78.45000000    68.61000000    27.33000000
   H     76.83000000    69.66000000    28.94000000
   H     77.93000000    68.66000000    29.86000000
   H     75.29000000    68.26000000    29.12000000
   N     79.00000000    66.23000000    28.74000000
   C     79.34000000    64.86000000    29.06000000
   C     78.34000000    64.08000000    29.91000000
   O     78.35000000    62.86000000    29.80000000
   C     80.66000000    64.95000000    29.81000000
   H     79.58000000    66.99000000    29.05000000
   H     79.62000000    64.35000000    28.14000000
   H     80.82000000    63.94000000    30.21000000
   H     81.46000000    65.34000000    29.18000000
   H     80.66000000    65.64000000    30.65000000
   N     77.53000000    64.79000000    30.69000000
   C     76.54000000    64.17000000    31.56000000
   C     75.27000000    63.82000000    30.80000000
   O     74.81000000    62.69000000    30.72000000
   C     76.24000000    64.98000000    32.81000000
   H     77.81000000    65.75000000    30.84000000
   H     76.89000000    63.21000000    31.95000000
   H     75.67000000    65.83000000    32.44000000
   H     75.59000000    64.40000000    33.47000000
   H     77.16000000    65.20000000    33.35000000
   N     74.84000000    64.72000000    29.91000000
   C     73.79000000    64.39000000    28.97000000
   C     74.21000000    63.24000000    28.07000000
   O     73.37000000    62.38000000    27.80000000
   C     73.31000000    65.63000000    28.22000000
   C     72.80000000    66.72000000    29.15000000
   C     72.68000000    67.99000000    28.31000000
   O     71.56000000    68.52000000    28.21000000
   O     73.71000000    68.62000000    27.98000000
   H     75.39000000    65.55000000    29.76000000
   H     73.02000000    63.99000000    29.63000000
   H     72.43000000    65.36000000    27.62000000
   H     74.09000000    66.01000000    27.56000000
   H     73.52000000    66.99000000    29.92000000
   H     71.83000000    66.42000000    29.54000000
   N     75.46000000    63.30000000    27.62000000
   C     76.03000000    62.29000000    26.76000000
   H     77.02900000    62.03400000    27.11400000
   H     75.40000000    61.40000000    26.77600000
   H     76.09300000    62.67300000    25.74100000
   H     76.06000000    64.06000000    27.92000000
  Ca     72.25000000    70.94000000    27.47000000
   O     74.66000000    71.75000000    28.30000000
   H     75.45000000    71.71000000    27.76000000
   H     74.99000000    71.95000000    29.18000000

Ca 1.70



