%chk=holoCaM_loop3_89.0.chk
%nprocshared=48
%mem=10GB
%nosave
#b3lyp/svp scf=(tight,noincore) Test 
#IOP(5/87=12) Density=Current Pop=(MK,readradii) iop(6/33=2) iop(6/42=6)

holoCaM_loop3_89.0 

   0   1
   C     55.09000000    47.05000000    34.90000000
   C     54.95000000    45.75000000    35.68000000
   O     54.27000000    45.65000000    36.69000000
   H     56.11800000    47.15700000    34.55400000
   H     54.41800000    47.03300000    34.04200000
   H     54.83500000    47.89100000    35.54500000
   N     55.62000000    44.70000000    35.20000000
   C     55.76000000    43.39000000    35.80000000
   C     56.47000000    43.41000000    37.15000000
   O     57.36000000    44.23000000    37.31000000
   C     56.48000000    42.43000000    34.87000000
   C     56.58000000    41.00000000    35.40000000
   O     55.78000000    40.12000000    35.04000000
   O     57.53000000    40.72000000    36.17000000
   H     56.01000000    44.73000000    34.27000000
   H     54.76000000    42.96000000    35.89000000
   H     57.51000000    42.79000000    34.88000000
   H     56.15000000    42.42000000    33.83000000
   N     56.23000000    42.47000000    38.07000000
   C     56.69000000    42.55000000    39.44000000
   C     57.44000000    41.34000000    39.98000000
   O     57.76000000    41.41000000    41.17000000
   C     55.47000000    42.83000000    40.31000000
   C     54.97000000    44.27000000    40.20000000
   C     55.97000000    45.24000000    40.83000000
   C     55.19000000    46.55000000    40.90000000
   N     55.85000000    47.70000000    41.55000000
   H     55.43000000    41.88000000    37.91000000
   H     57.45000000    43.33000000    39.52000000
   H     55.67000000    42.73000000    41.37000000
   H     54.61000000    42.20000000    40.09000000
   H     54.07000000    44.31000000    40.82000000
   H     54.91000000    44.55000000    39.15000000
   H     56.87000000    45.23000000    40.21000000
   H     56.22000000    44.81000000    41.80000000
   H     54.29000000    46.26000000    41.44000000
   H     54.91000000    46.86000000    39.89000000
   H     55.20000000    48.46000000    41.67000000
   H     56.12000000    47.50000000    42.51000000
   H     56.70000000    47.95000000    41.08000000
   N     57.97000000    40.43000000    39.16000000
   C     58.37000000    39.09000000    39.55000000
   C     59.25000000    38.33000000    38.57000000
   O     59.92000000    37.42000000    39.06000000
   C     57.11000000    38.26000000    39.75000000
   C     56.10000000    38.29000000    38.60000000
   O     56.40000000    38.00000000    37.42000000
   O     54.94000000    38.53000000    38.98000000
   H     57.91000000    40.62000000    38.17000000
   H     58.87000000    39.16000000    40.51000000
   H     56.57000000    38.43000000    40.68000000
   H     57.37000000    37.20000000    39.86000000
   N     59.16000000    38.61000000    37.27000000
   C     59.97000000    37.87000000    36.32000000
   C     59.49000000    36.50000000    35.86000000
   O     60.29000000    35.70000000    35.40000000
   H     58.60000000    39.41000000    37.01000000
   H     60.95000000    37.67000000    36.76000000
   H     60.08000000    38.51000000    35.44000000
   N     58.18000000    36.25000000    35.89000000
   C     57.56000000    35.02000000    35.43000000
   C     57.19000000    34.95000000    33.96000000
   O     56.59000000    33.97000000    33.51000000
   C     56.41000000    34.76000000    36.40000000
   C     55.06000000    35.28000000    35.94000000
   N     54.02000000    34.47000000    36.14000000
   O     54.98000000    36.29000000    35.25000000
   H     57.50000000    36.89000000    36.27000000
   H     58.37000000    34.31000000    35.60000000
   H     56.64000000    35.11000000    37.41000000
   H     56.31000000    33.67000000    36.48000000
   H     54.11000000    33.57000000    36.59000000
   H     53.14000000    34.65000000    35.67000000
   N     57.52000000    36.04000000    33.26000000
   C     57.26000000    36.27000000    31.86000000
   C     55.82000000    36.56000000    31.45000000
   O     55.62000000    36.73000000    30.25000000
   H     57.94000000    36.78000000    33.80000000
   H     57.52000000    35.43000000    31.22000000
   H     57.83000000    37.16000000    31.60000000
   N     54.85000000    36.71000000    32.36000000
   C     53.43000000    36.92000000    32.17000000
   C     53.00000000    38.23000000    32.83000000
   O     53.72000000    38.63000000    33.74000000
   C     52.67000000    35.70000000    32.70000000
   C     52.96000000    34.36000000    32.07000000
   C     52.78000000    33.20000000    32.83000000
   C     53.26000000    34.19000000    30.71000000
   C     53.01000000    31.93000000    32.30000000
   C     53.43000000    32.92000000    30.15000000
   C     53.40000000    31.76000000    30.95000000
   O     53.32000000    30.49000000    30.45000000
   H     55.11000000    36.64000000    33.33000000
   H     53.20000000    36.98000000    31.11000000
   H     51.60000000    35.89000000    32.66000000
   H     52.91000000    35.58000000    33.76000000
   H     52.61000000    33.32000000    33.89000000
   H     53.40000000    35.07000000    30.10000000
   H     53.08000000    31.10000000    32.99000000
   H     53.54000000    32.79000000    29.08000000
   H     52.84000000    30.51000000    29.62000000
   N     51.90000000    38.81000000    32.35000000
   C     51.23000000    39.84000000    33.13000000
   C     50.02000000    39.29000000    33.85000000
   O     49.30000000    38.52000000    33.23000000
   C     50.93000000    40.93000000    32.11000000
   C     52.19000000    41.61000000    31.59000000
   C     49.88000000    41.93000000    32.61000000
   C     52.84000000    42.62000000    32.53000000
   H     51.37000000    38.27000000    31.68000000
   H     51.92000000    40.23000000    33.88000000
   H     50.47000000    40.45000000    31.24000000
   H     51.92000000    42.20000000    30.71000000
   H     52.96000000    40.89000000    31.30000000
   H     49.79000000    42.83000000    32.01000000
   H     48.91000000    41.45000000    32.63000000
   H     50.21000000    42.10000000    33.64000000
   H     53.79000000    43.00000000    32.17000000
   H     52.23000000    43.51000000    32.68000000
   H     52.95000000    42.19000000    33.52000000
   N     49.92000000    39.63000000    35.14000000
   C     48.82000000    39.51000000    36.09000000
   C     47.99000000    40.75000000    36.32000000
   O     48.43000000    41.85000000    35.99000000
   C     49.22000000    38.94000000    37.45000000
   O     49.52000000    37.59000000    37.17000000
   H     50.67000000    40.26000000    35.40000000
   H     48.06000000    38.85000000    35.65000000
   H     48.37000000    38.98000000    38.13000000
   H     50.11000000    39.43000000    37.83000000
   H     49.35000000    37.14000000    38.00000000
   N     46.82000000    40.72000000    36.98000000
   C     45.92000000    41.85000000    37.08000000
   C     46.47000000    43.13000000    37.68000000
   O     46.41000000    44.17000000    37.02000000
   C     44.87000000    41.31000000    38.05000000
   H     46.49000000    39.84000000    37.34000000
   H     45.50000000    42.05000000    36.10000000
   H     44.08000000    42.04000000    38.17000000
   H     44.41000000    40.46000000    37.54000000
   H     45.27000000    40.97000000    39.01000000
   N     47.19000000    43.02000000    38.80000000
   C     47.90000000    44.15000000    39.35000000
   C     48.96000000    44.78000000    38.46000000
   O     48.98000000    46.00000000    38.36000000
   C     48.51000000    43.58000000    40.63000000
   H     47.20000000    42.21000000    39.41000000
   H     47.22000000    44.90000000    39.76000000
   H     49.10000000    42.70000000    40.36000000
   H     49.22000000    44.31000000    41.01000000
   H     47.77000000    43.34000000    41.39000000
   N     49.69000000    43.98000000    37.67000000
   C     50.60000000    44.49000000    36.66000000
   C     49.91000000    45.20000000    35.50000000
   O     50.49000000    46.17000000    35.03000000
   C     51.44000000    43.35000000    36.10000000
   C     52.26000000    42.75000000    37.25000000
   C     52.94000000    41.45000000    36.86000000
   O     54.06000000    41.11000000    37.31000000
   O     52.36000000    40.62000000    36.13000000
   H     49.43000000    43.01000000    37.59000000
   H     51.31000000    45.14000000    37.18000000
   H     52.13000000    43.87000000    35.44000000
   H     50.81000000    42.63000000    35.59000000
   H     51.65000000    42.45000000    38.09000000
   H     53.03000000    43.48000000    37.51000000
   N     48.73000000    44.75000000    35.08000000
   C     47.89000000    45.56000000    34.23000000
   H     46.99000000    45.84500000    34.77500000
   H     48.43200000    46.45700000    33.93000000
   H     47.61200000    44.99000000    33.34400000
   H     48.42000000    43.83000000    35.37000000
  Ca     54.06000000    38.74000000    36.45000000
   O     51.90000000    37.37000000    35.65000000
   H     51.65000000    36.46000000    35.53000000
   H     51.13000000    37.78000000    36.05000000

Ca 1.70



