%chk=holoCaM_loop3_70.0.chk
%nprocshared=48
%mem=10GB
%nosave
#b3lyp/svp scf=(tight,noincore) Test 
#IOP(5/87=12) Density=Current Pop=(MK,readradii) iop(6/33=2) iop(6/42=6)

holoCaM_loop3_70.0 

   0   1
   C     71.14000000    69.34000000    13.44000000
   C     72.44000000    69.38000000    12.65000000
   O     73.32000000    68.60000000    13.03000000
   H     70.34000000    68.96100000    12.80400000
   H     71.25900000    68.68500000    14.30300000
   H     70.88900000    70.34500000    13.77800000
   N     72.62000000    70.25000000    11.65000000
   C     73.89000000    70.54000000    11.02000000
   C     74.81000000    71.10000000    12.10000000
   O     74.53000000    72.06000000    12.81000000
   C     73.64000000    71.51000000     9.87000000
   C     74.88000000    71.71000000     9.02000000
   O     74.73000000    72.34000000     7.95000000
   O     76.00000000    71.34000000     9.43000000
   H     71.85000000    70.78000000    11.28000000
   H     74.38000000    69.64000000    10.65000000
   H     73.26000000    72.41000000    10.35000000
   H     72.90000000    71.03000000     9.23000000
   N     75.89000000    70.36000000    12.36000000
   C     76.78000000    70.65000000    13.47000000
   C     77.72000000    71.83000000    13.26000000
   O     78.29000000    72.36000000    14.22000000
   C     77.45000000    69.37000000    13.97000000
   C     76.49000000    68.40000000    14.66000000
   C     75.73000000    68.74000000    15.94000000
   C     74.79000000    67.62000000    16.38000000
   N     75.56000000    66.43000000    16.81000000
   H     75.92000000    69.47000000    11.89000000
   H     76.22000000    70.95000000    14.35000000
   H     78.35000000    69.41000000    14.58000000
   H     77.81000000    68.87000000    13.07000000
   H     77.09000000    67.52000000    14.91000000
   H     75.79000000    68.07000000    13.90000000
   H     75.24000000    69.70000000    15.79000000
   H     76.45000000    68.91000000    16.73000000
   H     74.18000000    67.49000000    15.49000000
   H     74.07000000    67.86000000    17.16000000
   H     75.04000000    65.97000000    17.54000000
   H     75.63000000    65.86000000    15.98000000
   H     76.50000000    66.58000000    17.12000000
   N     77.92000000    72.25000000    12.01000000
   C     78.63000000    73.47000000    11.67000000
   C     77.84000000    74.46000000    10.83000000
   O     78.38000000    75.55000000    10.60000000
   C     79.97000000    73.17000000    11.01000000
   C     79.95000000    72.43000000     9.68000000
   O     81.06000000    72.13000000     9.19000000
   O     78.88000000    72.05000000     9.16000000
   H     77.62000000    71.67000000    11.25000000
   H     78.88000000    73.92000000    12.63000000
   H     80.61000000    72.67000000    11.73000000
   H     80.53000000    74.09000000    10.84000000
   N     76.64000000    74.10000000    10.38000000
   C     75.75000000    74.96000000     9.63000000
   C     76.07000000    75.15000000     8.15000000
   O     75.56000000    76.11000000     7.57000000
   H     76.38000000    73.12000000    10.35000000
   H     75.77000000    75.96000000    10.07000000
   H     74.77000000    74.52000000     9.84000000
   N     76.90000000    74.28000000     7.58000000
   C     77.33000000    74.53000000     6.22000000
   C     76.39000000    74.24000000     5.06000000
   O     76.70000000    74.50000000     3.90000000
   C     78.64000000    73.78000000     5.97000000
   C     78.45000000    72.30000000     5.65000000
   N     78.92000000    71.88000000     4.48000000
   O     77.86000000    71.56000000     6.44000000
   H     77.26000000    73.51000000     8.13000000
   H     77.48000000    75.60000000     6.09000000
   H     79.33000000    73.86000000     6.81000000
   H     79.15000000    74.23000000     5.12000000
   H     79.16000000    72.65000000     3.87000000
   H     78.67000000    70.94000000     4.19000000
   N     75.16000000    73.94000000     5.47000000
   C     74.09000000    73.65000000     4.53000000
   C     73.85000000    72.17000000     4.26000000
   O     73.11000000    71.89000000     3.32000000
   H     75.08000000    73.72000000     6.46000000
   H     74.32000000    74.14000000     3.59000000
   H     73.15000000    74.04000000     4.92000000
   N     74.53000000    71.23000000     4.92000000
   C     74.47000000    69.81000000     4.61000000
   C     74.68000000    69.03000000     5.90000000
   O     75.62000000    69.28000000     6.65000000
   C     75.50000000    69.45000000     3.54000000
   C     75.43000000    70.14000000     2.20000000
   C     76.09000000    71.36000000     2.03000000
   C     74.80000000    69.47000000     1.14000000
   C     76.17000000    71.92000000     0.75000000
   C     74.81000000    70.06000000    -0.13000000
   C     75.52000000    71.26000000    -0.32000000
   O     75.72000000    71.79000000    -1.56000000
   H     75.17000000    71.55000000     5.63000000
   H     73.49000000    69.61000000     4.17000000
   H     75.54000000    68.36000000     3.43000000
   H     76.47000000    69.63000000     4.02000000
   H     76.68000000    71.87000000     2.77000000
   H     74.43000000    68.46000000     1.26000000
   H     76.72000000    72.81000000     0.51000000
   H     74.33000000    69.50000000    -0.92000000
   H     75.10000000    71.44000000    -2.19000000
   N     73.72000000    68.15000000     6.17000000
   C     73.78000000    67.14000000     7.21000000
   C     74.38000000    65.91000000     6.54000000
   O     73.87000000    65.34000000     5.58000000
   C     72.36000000    66.88000000     7.70000000
   C     72.09000000    67.90000000     8.80000000
   C     72.04000000    65.52000000     8.30000000
   C     70.64000000    67.88000000     9.28000000
   H     73.18000000    67.92000000     5.35000000
   H     74.45000000    67.47000000     8.01000000
   H     71.70000000    67.05000000     6.85000000
   H     72.38000000    68.89000000     8.46000000
   H     72.68000000    67.83000000     9.72000000
   H     72.41000000    64.69000000     7.69000000
   H     72.32000000    65.47000000     9.36000000
   H     70.96000000    65.43000000     8.21000000
   H     70.55000000    68.82000000     9.83000000
   H     69.88000000    67.68000000     8.53000000
   H     70.54000000    67.06000000     9.99000000
   N     75.50000000    65.42000000     7.08000000
   C     76.26000000    64.31000000     6.56000000
   C     76.10000000    63.02000000     7.35000000
   O     75.22000000    63.00000000     8.21000000
   C     77.71000000    64.72000000     6.34000000
   O     78.29000000    65.36000000     7.45000000
   H     75.90000000    66.02000000     7.79000000
   H     75.99000000    64.16000000     5.51000000
   H     77.73000000    65.43000000     5.51000000
   H     78.23000000    63.80000000     6.07000000
   H     77.84000000    66.17000000     7.66000000
   N     76.74000000    61.87000000     7.10000000
   C     76.32000000    60.63000000     7.73000000
   C     76.39000000    60.57000000     9.25000000
   O     75.50000000    60.05000000     9.91000000
   C     77.01000000    59.44000000     7.07000000
   H     77.40000000    61.76000000     6.35000000
   H     75.28000000    60.54000000     7.40000000
   H     76.97000000    59.42000000     5.98000000
   H     78.04000000    59.39000000     7.44000000
   H     76.57000000    58.52000000     7.45000000
   N     77.36000000    61.32000000     9.79000000
   C     77.54000000    61.50000000    11.22000000
   C     76.52000000    62.45000000    11.81000000
   O     76.31000000    62.46000000    13.03000000
   C     78.97000000    62.00000000    11.45000000
   H     78.08000000    61.67000000     9.19000000
   H     77.39000000    60.54000000    11.72000000
   H     79.01000000    62.27000000    12.51000000
   H     79.66000000    61.17000000    11.26000000
   H     79.12000000    62.94000000    10.93000000
   N     75.96000000    63.40000000    11.06000000
   C     74.85000000    64.27000000    11.40000000
   C     73.48000000    63.62000000    11.40000000
   O     72.68000000    63.85000000    12.30000000
   C     75.01000000    65.60000000    10.67000000
   C     76.37000000    66.23000000    10.93000000
   C     76.64000000    67.41000000    10.01000000
   O     76.54000000    68.59000000    10.42000000
   O     76.93000000    67.25000000     8.80000000
   H     76.21000000    63.39000000    10.09000000
   H     74.98000000    64.50000000    12.46000000
   H     74.32000000    66.32000000    11.11000000
   H     74.77000000    65.44000000     9.62000000
   H     77.17000000    65.51000000    10.74000000
   H     76.47000000    66.43000000    12.00000000
   N     73.19000000    62.80000000    10.39000000
   C     71.98000000    62.00000000    10.29000000
   H     71.18800000    62.59600000     9.83600000
   H     72.17400000    61.12300000     9.67200000
   H     71.67000000    61.68300000    11.28600000
   H     73.88000000    62.77000000     9.66000000
  Ca     77.62000000    69.81000000     8.30000000
   O     79.22000000    69.25000000    10.39000000
   H     79.99000000    68.68000000    10.30000000
   H     78.70000000    68.85000000    11.09000000

Ca 1.70



