%chk=holoCaM_loop3_74.0.chk
%nprocshared=48
%mem=10GB
%nosave
#b3lyp/svp scf=(tight,noincore) Test 
#IOP(5/87=12) Density=Current Pop=(MK,readradii) iop(6/33=2) iop(6/42=6)

holoCaM_loop3_74.0 

   0   1
   C     78.56000000    64.20500000    95.73000000
   C     79.70000000    64.33500000    94.73000000
   O     80.30000000    63.28500000    94.47000000
   H     77.66800000    63.84500000    95.21800000
   H     78.84000000    63.49800000    96.51100000
   H     78.35400000    65.17800000    96.17600000
   N     79.96000000    65.49500000    94.13000000
   C     81.04000000    65.73500000    93.19000000
   C     82.39000000    65.64500000    93.88000000
   O     82.57000000    66.28500000    94.92000000
   C     80.77000000    66.99500000    92.37000000
   C     81.67000000    67.04500000    91.15000000
   O     81.20000000    67.03500000    89.99000000
   O     82.91000000    67.16500000    91.26000000
   H     79.26000000    66.17500000    94.39000000
   H     81.06000000    64.89500000    92.50000000
   H     80.85000000    67.86500000    93.03000000
   H     79.75000000    66.94500000    91.97000000
   N     83.49000000    65.08500000    93.38000000
   C     84.79000000    64.90500000    93.98000000
   C     86.02000000    65.58500000    93.41000000
   O     87.13000000    65.25500000    93.84000000
   C     85.06000000    63.42500000    94.23000000
   C     83.99000000    62.77500000    95.11000000
   C     83.78000000    63.39500000    96.49000000
   C     83.07000000    62.44500000    97.46000000
   N     81.65000000    62.26500000    97.12000000
   H     83.40000000    64.79500000    92.41000000
   H     84.82000000    65.28500000    95.00000000
   H     85.98000000    63.32500000    94.80000000
   H     85.31000000    62.88500000    93.32000000
   H     84.33000000    61.74500000    95.24000000
   H     83.03000000    62.68500000    94.60000000
   H     83.33000000    64.37500000    96.34000000
   H     84.77000000    63.58500000    96.90000000
   H     83.07000000    62.80500000    98.49000000
   H     83.58000000    61.48500000    97.54000000
   H     81.18000000    61.59500000    97.71000000
   H     81.09000000    63.09500000    97.25000000
   H     81.54000000    61.91500000    96.17000000
   N     85.77000000    66.50500000    92.47000000
   C     86.70000000    67.53500000    92.04000000
   C     86.05000000    68.89500000    91.82000000
   O     86.83000000    69.82500000    91.60000000
   C     87.51000000    67.14500000    90.80000000
   C     86.65000000    66.84500000    89.58000000
   O     87.21000000    66.32500000    88.58000000
   O     85.43000000    67.09500000    89.55000000
   H     84.93000000    66.51500000    91.92000000
   H     87.43000000    67.57500000    92.84000000
   H     87.99000000    66.21500000    91.10000000
   H     88.36000000    67.78500000    90.59000000
   N     84.74000000    68.99500000    92.03000000
   C     83.96000000    70.19500000    92.27000000
   C     83.55000000    71.03500000    91.07000000
   O     83.12000000    72.17500000    91.25000000
   H     84.10000000    68.21500000    91.94000000
   H     84.52000000    70.87500000    92.90000000
   H     83.06000000    69.88500000    92.81000000
   N     83.64000000    70.42500000    89.89000000
   C     83.36000000    71.10500000    88.64000000
   C     81.87000000    71.21500000    88.38000000
   O     81.47000000    72.02500000    87.54000000
   C     84.09000000    70.48500000    87.45000000
   C     83.92000000    69.00500000    87.15000000
   N     84.79000000    68.38500000    86.35000000
   O     83.04000000    68.33500000    87.68000000
   H     83.84000000    69.43500000    89.80000000
   H     83.64000000    72.15500000    88.58000000
   H     85.14000000    70.48500000    87.72000000
   H     83.77000000    71.19500000    86.68000000
   H     85.42000000    68.92500000    85.78000000
   H     84.83000000    67.38500000    86.17000000
   N     81.05000000    70.34500000    88.99000000
   C     79.62000000    70.45500000    88.81000000
   C     79.09000000    69.52500000    87.74000000
   O     78.04000000    69.75500000    87.13000000
   H     81.36000000    69.73500000    89.73000000
   H     79.31000000    71.45500000    88.49000000
   H     79.14000000    70.19500000    89.76000000
   N     79.84000000    68.48500000    87.37000000
   C     79.47000000    67.41500000    86.47000000
   C     79.86000000    66.09500000    87.11000000
   O     81.05000000    65.81500000    87.29000000
   C     80.13000000    67.62500000    85.11000000
   C     80.04000000    69.04500000    84.59000000
   C     81.15000000    69.87500000    84.75000000
   C     78.93000000    69.41500000    83.82000000
   C     81.04000000    71.20500000    84.31000000
   C     78.87000000    70.74500000    83.38000000
   C     79.93000000    71.65500000    83.58000000
   O     79.93000000    72.90500000    83.04000000
   H     80.67000000    68.33500000    87.93000000
   H     78.39000000    67.39500000    86.34000000
   H     79.66000000    66.98500000    84.36000000
   H     81.18000000    67.36500000    85.19000000
   H     82.07000000    69.64500000    85.27000000
   H     78.14000000    68.71500000    83.60000000
   H     81.86000000    71.88500000    84.49000000
   H     78.04000000    71.08500000    82.77000000
   H     79.21000000    73.04500000    82.42000000
   N     78.87000000    65.32500000    87.55000000
   C     79.07000000    64.05500000    88.21000000
   C     79.27000000    62.95500000    87.18000000
   O     78.39000000    62.74500000    86.35000000
   C     77.88000000    63.89500000    89.16000000
   C     78.22000000    64.67500000    90.42000000
   C     77.61000000    62.43500000    89.48000000
   C     77.20000000    64.48500000    91.53000000
   H     77.94000000    65.60500000    87.26000000
   H     79.95000000    64.10500000    88.85000000
   H     76.92000000    64.28500000    88.84000000
   H     78.22000000    65.71500000    90.08000000
   H     79.23000000    64.45500000    90.76000000
   H     77.40000000    62.00500000    88.49000000
   H     78.44000000    61.99500000    90.03000000
   H     76.75000000    62.32500000    90.14000000
   H     77.30000000    63.47500000    91.93000000
   H     77.27000000    65.17500000    92.37000000
   H     76.19000000    64.60500000    91.11000000
   N     80.39000000    62.25500000    87.33000000
   C     80.98000000    61.23500000    86.48000000
   C     80.89000000    59.82500000    87.04000000
   O     80.44000000    59.56500000    88.15000000
   C     82.36000000    61.68500000    86.01000000
   O     83.18000000    61.67500000    87.16000000
   H     81.00000000    62.61500000    88.05000000
   H     80.43000000    61.17500000    85.54000000
   H     82.24000000    62.71500000    85.67000000
   H     82.81000000    61.01500000    85.28000000
   H     83.04000000    62.46500000    87.70000000
   N     81.32000000    58.79500000    86.30000000
   C     81.07000000    57.39500000    86.60000000
   C     81.57000000    56.93500000    87.96000000
   O     81.01000000    56.04500000    88.59000000
   C     81.75000000    56.58500000    85.50000000
   H     81.61000000    58.96500000    85.35000000
   H     79.98000000    57.31500000    86.62000000
   H     81.39000000    56.75500000    84.48000000
   H     82.83000000    56.71500000    85.54000000
   H     81.48000000    55.55500000    85.71000000
   N     82.70000000    57.52500000    88.39000000
   C     83.27000000    57.14500000    89.67000000
   C     82.90000000    58.02500000    90.85000000
   O     83.53000000    58.04500000    91.91000000
   C     84.76000000    56.97500000    89.43000000
   H     83.08000000    58.32500000    87.92000000
   H     82.88000000    56.14500000    89.89000000
   H     85.21000000    57.96500000    89.42000000
   H     85.22000000    56.28500000    90.13000000
   H     84.89000000    56.41500000    88.50000000
   N     82.01000000    58.95500000    90.50000000
   C     81.40000000    59.92500000    91.38000000
   C     79.93000000    59.59500000    91.59000000
   O     79.34000000    59.99500000    92.59000000
   C     81.58000000    61.35500000    90.87000000
   C     83.03000000    61.77500000    90.66000000
   C     83.01000000    63.22500000    90.19000000
   O     83.80000000    64.08500000    90.64000000
   O     82.42000000    63.52500000    89.13000000
   H     81.78000000    58.95500000    89.51000000
   H     81.74000000    59.94500000    92.42000000
   H     81.08000000    61.99500000    91.60000000
   H     81.03000000    61.43500000    89.94000000
   H     83.58000000    61.17500000    89.95000000
   H     83.55000000    61.64500000    91.61000000
   N     79.21000000    58.86500000    90.74000000
   C     77.81000000    58.48500000    90.79000000
   H     77.22200000    59.18800000    90.19900000
   H     77.69100000    57.48100000    90.38400000
   H     77.46500000    58.50300000    91.82400000
   H     79.74000000    58.56500000    89.93000000
  Ca     83.24000000    65.93000000    88.78000000
   O     83.73000000    65.68000000    86.11000000
   H     83.07000000    65.65000000    85.43000000
   H     84.55000000    65.43000000    85.67000000

Ca 1.70



