%chk=holoCaM_loop3_100.0.chk
%nprocshared=48
%mem=10GB
%nosave
#b3lyp/svp scf=(tight,noincore) Test 
#IOP(5/87=12) Density=Current Pop=(MK,readradii) iop(6/33=2) iop(6/42=6)

holoCaM_loop3_100.0 

   0   1
   C     84.89000000    66.93000000   100.23200000
   C     85.68000000    68.07000000    99.60200000
   O     86.51000000    67.70000000    98.77200000
   H     83.91900000    66.84900000    99.74400000
   H     85.43800000    65.99600000   100.10800000
   H     84.74700000    67.13000000   101.29400000
   N     85.60000000    69.35000000    99.98200000
   C     86.38000000    70.51000000    99.57200000
   C     87.62000000    70.60000000   100.45200000
   O     87.71000000    71.23000000   101.50200000
   C     85.40000000    71.67000000    99.71200000
   C     86.09000000    72.93000000    99.22200000
   O     85.68000000    74.04000000    99.61200000
   O     87.10000000    72.86000000    98.48200000
   H     84.79000000    69.66000000   100.48200000
   H     86.67000000    70.35000000    98.53200000
   H     84.94000000    71.81000000   100.68200000
   H     84.58000000    71.49000000    99.01200000
   N     88.61000000    69.74000000   100.21200000
   C     89.60000000    69.37000000   101.21200000
   C     90.62000000    70.40000000   101.66200000
   O     91.17000000    70.28000000   102.75200000
   C     90.37000000    68.17000000   100.65200000
   C     89.46000000    66.97000000   100.40200000
   C     90.33000000    65.74000000   100.19200000
   C     89.64000000    64.43000000    99.82200000
   N     88.37000000    64.26000000   100.54200000
   H     88.38000000    69.08000000    99.49200000
   H     89.10000000    69.18000000   102.16200000
   H     91.16000000    68.00000000   101.38200000
   H     90.83000000    68.49000000    99.72200000
   H     88.83000000    67.26000000    99.56200000
   H     88.81000000    66.87000000   101.26200000
   H     90.89000000    65.54000000   101.11200000
   H     91.08000000    65.91000000    99.43200000
   H     90.31000000    63.60000000   100.05200000
   H     89.33000000    64.49000000    98.78200000
   H     87.71000000    65.02000000   100.47200000
   H     87.92000000    63.47000000   100.10200000
   H     88.57000000    64.01000000   101.50200000
   N     90.78000000    71.48000000   100.89200000
   C     91.50000000    72.69000000   101.26200000
   C     90.53000000    73.79000000   101.68200000
   O     90.93000000    74.90000000   102.03200000
   C     92.30000000    73.10000000   100.03200000
   C     91.58000000    73.13000000    98.69200000
   O     92.30000000    73.36000000    97.69200000
   O     90.35000000    72.97000000    98.55200000
   H     90.30000000    71.51000000   100.01200000
   H     92.08000000    72.46000000   102.15200000
   H     93.10000000    72.36000000    99.89200000
   H     92.84000000    74.03000000   100.20200000
   N     89.21000000    73.60000000   101.68200000
   C     88.28000000    74.67000000   102.01200000
   C     88.28000000    75.89000000   101.10200000
   O     88.03000000    76.96000000   101.64200000
   H     88.85000000    72.70000000   101.42200000
   H     88.42000000    74.97000000   103.04200000
   H     87.28000000    74.24000000   101.94200000
   N     88.76000000    75.77000000    99.86200000
   C     88.80000000    76.91000000    98.97200000
   C     87.45000000    77.42000000    98.49200000
   O     87.31000000    78.52000000    97.97200000
   C     89.84000000    76.64000000    97.88200000
   C     89.56000000    75.51000000    96.90200000
   N     90.31000000    75.42000000    95.80200000
   O     88.52000000    74.86000000    96.93200000
   H     89.04000000    74.87000000    99.49200000
   H     89.26000000    77.67000000    99.60200000
   H     90.75000000    76.38000000    98.43200000
   H     89.97000000    77.59000000    97.36200000
   H     90.89000000    76.17000000    95.45200000
   H     89.96000000    74.88000000    95.02200000
   N     86.37000000    76.64000000    98.68200000
   C     84.99000000    76.98000000    98.39200000
   C     84.31000000    76.00000000    97.45200000
   O     83.11000000    76.16000000    97.24200000
   H     86.46000000    75.68000000    98.97200000
   H     85.01000000    77.97000000    97.94200000
   H     84.38000000    77.24000000    99.25200000
   N     84.99000000    75.07000000    96.78200000
   C     84.56000000    74.38000000    95.58200000
   C     85.13000000    72.99000000    95.35200000
   O     86.16000000    72.72000000    95.97200000
   C     84.74000000    75.24000000    94.34200000
   C     85.57000000    76.50000000    94.42200000
   C     86.92000000    76.40000000    94.77200000
   C     85.00000000    77.78000000    94.32200000
   C     87.75000000    77.50000000    94.97200000
   C     85.84000000    78.90000000    94.39200000
   C     87.20000000    78.77000000    94.70200000
   O     87.92000000    79.92000000    94.84200000
   H     85.81000000    74.68000000    97.22200000
   H     83.53000000    74.08000000    95.79200000
   H     83.77000000    75.62000000    94.01200000
   H     85.16000000    74.66000000    93.51200000
   H     87.43000000    75.44000000    94.79200000
   H     83.95000000    77.81000000    94.07200000
   H     88.78000000    77.43000000    95.30200000
   H     85.47000000    79.90000000    94.22200000
   H     87.40000000    80.71000000    94.66200000
   N     84.56000000    72.10000000    94.53200000
   C     84.92000000    70.72000000    94.27200000
   C     85.58000000    70.63000000    92.90200000
   O     84.98000000    70.91000000    91.86200000
   C     83.70000000    69.81000000    94.40200000
   C     82.96000000    70.04000000    95.71200000
   C     84.15000000    68.36000000    94.31200000
   C     83.74000000    69.76000000    96.99200000
   H     83.79000000    72.53000000    94.03200000
   H     85.72000000    70.53000000    94.98200000
   H     83.00000000    69.99000000    93.58200000
   H     82.09000000    69.39000000    95.64200000
   H     82.60000000    71.07000000    95.64200000
   H     84.80000000    68.13000000    95.15200000
   H     83.23000000    67.77000000    94.31200000
   H     84.62000000    68.20000000    93.34200000
   H     84.72000000    70.24000000    96.95200000
   H     83.10000000    70.12000000    97.80200000
   H     83.94000000    68.70000000    97.13200000
   N     86.83000000    70.18000000    92.93200000
   C     87.51000000    69.72000000    91.73200000
   C     87.40000000    68.24000000    91.39200000
   O     86.89000000    67.44000000    92.17200000
   C     88.99000000    70.06000000    91.82200000
   O     89.57000000    69.56000000    93.01200000
   H     87.30000000    70.07000000    93.82200000
   H     87.10000000    70.24000000    90.87200000
   H     89.15000000    71.12000000    91.97200000
   H     89.44000000    69.67000000    90.90200000
   H     88.99000000    69.72000000    93.76200000
   N     87.92000000    67.79000000    90.25200000
   C     87.82000000    66.45000000    89.70200000
   C     88.41000000    65.47000000    90.69200000
   O     87.76000000    64.43000000    90.82200000
   C     88.56000000    66.36000000    88.37200000
   H     88.34000000    68.54000000    89.72200000
   H     86.80000000    66.10000000    89.55200000
   H     88.38000000    65.39000000    87.89200000
   H     88.06000000    67.19000000    87.89200000
   H     89.64000000    66.50000000    88.31200000
   N     89.56000000    65.61000000    91.35200000
   C     90.06000000    64.65000000    92.31200000
   C     89.26000000    64.68000000    93.61200000
   O     89.14000000    63.67000000    94.31200000
   C     91.49000000    65.11000000    92.58200000
   H     90.10000000    66.47000000    91.28200000
   H     90.03000000    63.64000000    91.91200000
   H     91.52000000    66.07000000    93.09200000
   H     91.93000000    64.41000000    93.30200000
   H     92.14000000    65.22000000    91.71200000
   N     88.60000000    65.76000000    94.03200000
   C     87.73000000    65.84000000    95.19200000
   C     86.43000000    65.12000000    94.86200000
   O     85.87000000    64.42000000    95.70200000
   C     87.59000000    67.32000000    95.55200000
   C     88.95000000    67.91000000    95.91200000
   C     88.91000000    69.41000000    96.15200000
   O     89.26000000    69.92000000    97.23200000
   O     88.39000000    70.15000000    95.28200000
   H     88.71000000    66.58000000    93.46200000
   H     88.13000000    65.25000000    96.01200000
   H     86.90000000    67.36000000    96.40200000
   H     87.20000000    67.83000000    94.67200000
   H     89.64000000    67.66000000    95.10200000
   H     89.23000000    67.34000000    96.80200000
   N     85.96000000    65.20000000    93.62200000
   C     84.96000000    64.31000000    93.06200000
   H     84.08400000    64.88800000    92.76700000
   H     85.37100000    63.80400000    92.18900000
   H     84.67200000    63.57000000    93.80900000
   H     86.38000000    65.79000000    92.91200000
  Ca     88.80000000    72.31000000    96.62000000
   O     91.26000000    72.07000000    95.68000000
   H     91.82000000    72.39000000    96.39000000
   H     91.87000000    71.70000000    95.04000000

Ca 1.70



