%chk=holoCaM_loop3_18.0.chk
%nprocshared=48
%mem=10GB
%nosave
#b3lyp/svp scf=(tight,noincore) Test 
#IOP(5/87=12) Density=Current Pop=(MK,readradii) iop(6/33=2) iop(6/42=6)

holoCaM_loop3_18.0 

   0   1
   C     91.16000000    59.49000000   103.71000000
   C     92.35000000    59.92000000   102.87000000
   O     93.15000000    59.10000000   102.41000000
   H     90.29700000    59.33500000   103.06300000
   H     91.39700000    58.56100000   104.22800000
   H     90.93100000    60.26600000   104.44100000
   N     92.64000000    61.22000000   102.83000000
   C     93.77000000    61.83000000   102.17000000
   C     95.00000000    61.70000000   103.06000000
   O     95.17000000    62.34000000   104.10000000
   C     93.49000000    63.30000000   101.86000000
   C     94.53000000    64.03000000   101.03000000
   O     94.12000000    65.01000000   100.37000000
   O     95.67000000    63.55000000   100.90000000
   H     92.03000000    61.80000000   103.39000000
   H     93.98000000    61.27000000   101.26000000
   H     93.25000000    63.94000000   102.71000000
   H     92.53000000    63.27000000   101.33000000
   N     95.98000000    60.96000000   102.54000000
   C     97.17000000    60.52000000   103.24000000
   C     98.16000000    61.65000000   103.47000000
   O     99.15000000    61.42000000   104.15000000
   C     97.85000000    59.35000000   102.52000000
   C     97.08000000    58.08000000   102.84000000
   C     97.81000000    56.85000000   102.30000000
   C     99.04000000    56.47000000   103.12000000
   N     99.63000000    55.16000000   102.81000000
   H     95.87000000    60.78000000   101.55000000
   H     96.99000000    60.23000000   104.27000000
   H     98.85000000    59.16000000   102.92000000
   H     97.94000000    59.58000000   101.46000000
   H     96.10000000    58.24000000   102.41000000
   H     96.90000000    58.01000000   103.91000000
   H     98.18000000    57.08000000   101.30000000
   H     97.07000000    56.05000000   102.19000000
   H     98.68000000    56.49000000   104.15000000
   H     99.80000000    57.23000000   102.94000000
   H    100.47000000    54.88000000   103.31000000
   H     99.07000000    54.35000000   103.05000000
   H     99.96000000    55.26000000   101.86000000
   N     98.07000000    62.87000000   102.92000000
   C     98.81000000    64.02000000   103.38000000
   C     97.90000000    65.22000000   103.54000000
   O     98.37000000    66.25000000   104.02000000
   C     99.88000000    64.30000000   102.32000000
   C     99.51000000    64.55000000   100.86000000
   O    100.39000000    64.79000000   100.00000000
   O     98.34000000    64.30000000   100.49000000
   H     97.43000000    62.95000000   102.15000000
   H     99.30000000    63.83000000   104.33000000
   H    100.51000000    63.42000000   102.26000000
   H    100.58000000    65.08000000   102.61000000
   N     96.61000000    65.09000000   103.21000000
   C     95.68000000    66.20000000   103.10000000
   C     95.93000000    67.14000000   101.94000000
   O     95.72000000    68.33000000   102.16000000
   H     96.32000000    64.24000000   102.75000000
   H     95.69000000    66.75000000   104.04000000
   H     94.66000000    65.82000000   103.06000000
   N     96.59000000    66.79000000   100.83000000
   C     96.95000000    67.80000000    99.87000000
   C     95.79000000    68.30000000    99.02000000
   O     95.96000000    69.19000000    98.20000000
   C     98.18000000    67.44000000    99.04000000
   C     97.93000000    66.42000000    97.94000000
   N     98.85000000    66.35000000    96.98000000
   O     96.96000000    65.67000000    98.07000000
   H     96.86000000    65.81000000   100.81000000
   H     97.35000000    68.68000000   100.38000000
   H     99.10000000    67.15000000    99.55000000
   H     98.44000000    68.39000000    98.57000000
   H     99.63000000    66.98000000    97.00000000
   H     98.94000000    65.58000000    96.32000000
   N     94.58000000    67.80000000    99.27000000
   C     93.41000000    68.03000000    98.45000000
   C     93.10000000    67.03000000    97.35000000
   O     92.08000000    67.18000000    96.68000000
   H     94.55000000    67.04000000    99.94000000
   H     93.60000000    68.95000000    97.90000000
   H     92.54000000    68.07000000    99.12000000
   N     93.96000000    66.04000000    97.13000000
   C     93.78000000    65.02000000    96.11000000
   C     93.94000000    63.58000000    96.55000000
   O     94.49000000    63.26000000    97.60000000
   C     94.68000000    65.29000000    94.91000000
   C     94.61000000    66.71000000    94.41000000
   C     95.56000000    67.63000000    94.86000000
   C     93.59000000    67.10000000    93.54000000
   C     95.52000000    68.98000000    94.47000000
   C     93.54000000    68.45000000    93.16000000
   C     94.49000000    69.39000000    93.61000000
   O     94.28000000    70.71000000    93.34000000
   H     94.60000000    65.86000000    97.89000000
   H     92.73000000    65.09000000    95.82000000
   H     94.37000000    64.70000000    94.04000000
   H     95.71000000    65.05000000    95.17000000
   H     96.33000000    67.19000000    95.46000000
   H     92.81000000    66.42000000    93.23000000
   H     96.32000000    69.62000000    94.82000000
   H     92.72000000    68.86000000    92.59000000
   H     93.64000000    70.88000000    92.65000000
   N     93.47000000    62.71000000    95.65000000
   C     93.60000000    61.27000000    95.79000000
   C     94.11000000    60.70000000    94.48000000
   O     93.44000000    61.02000000    93.50000000
   C     92.34000000    60.59000000    96.32000000
   C     92.19000000    60.81000000    97.83000000
   C     92.26000000    59.10000000    96.00000000
   C     93.17000000    60.08000000    98.74000000
   H     93.02000000    63.11000000    94.84000000
   H     94.38000000    61.06000000    96.52000000
   H     91.52000000    61.12000000    95.84000000
   H     91.15000000    60.60000000    98.08000000
   H     92.34000000    61.88000000    97.94000000
   H     91.43000000    58.64000000    96.54000000
   H     92.11000000    58.97000000    94.93000000
   H     93.19000000    58.59000000    96.24000000
   H     94.20000000    60.38000000    98.52000000
   H     93.01000000    60.25000000    99.81000000
   H     93.04000000    59.01000000    98.59000000
   N     95.14000000    59.85000000    94.45000000
   C     95.63000000    59.10000000    93.31000000
   C     95.11000000    57.68000000    93.38000000
   O     94.31000000    57.41000000    94.27000000
   C     97.15000000    59.02000000    93.46000000
   O     97.68000000    58.50000000    94.66000000
   H     95.50000000    59.62000000    95.37000000
   H     95.40000000    59.50000000    92.32000000
   H     97.46000000    60.06000000    93.40000000
   H     97.57000000    58.45000000    92.63000000
   H     98.62000000    58.71000000    94.66000000
   N     95.54000000    56.71000000    92.57000000
   C     95.19000000    55.31000000    92.75000000
   C     95.93000000    54.68000000    93.92000000
   O     95.39000000    53.81000000    94.60000000
   C     95.43000000    54.61000000    91.41000000
   H     95.91000000    56.89000000    91.65000000
   H     94.15000000    55.11000000    92.99000000
   H     94.97000000    53.63000000    91.54000000
   H     94.91000000    55.20000000    90.66000000
   H     96.51000000    54.57000000    91.22000000
   N     97.16000000    55.07000000    94.25000000
   C     97.87000000    54.60000000    95.42000000
   C     97.15000000    54.90000000    96.73000000
   O     96.91000000    53.95000000    97.48000000
   C     99.29000000    55.13000000    95.51000000
   H     97.60000000    55.85000000    93.78000000
   H     98.09000000    53.53000000    95.49000000
   H     99.30000000    56.22000000    95.46000000
   H     99.81000000    54.73000000    96.39000000
   H     99.75000000    54.88000000    94.56000000
   N     96.76000000    56.15000000    96.99000000
   C     96.05000000    56.47000000    98.20000000
   C     94.67000000    55.82000000    98.21000000
   O     94.22000000    55.25000000    99.20000000
   C     95.88000000    57.99000000    98.31000000
   C     97.19000000    58.76000000    98.24000000
   C     96.82000000    60.21000000    98.52000000
   O     96.56000000    60.58000000    99.68000000
   O     96.80000000    61.03000000    97.57000000
   H     97.05000000    56.86000000    96.33000000
   H     96.53000000    56.06000000    99.09000000
   H     95.45000000    58.16000000    99.30000000
   H     95.26000000    58.32000000    97.48000000
   H     97.63000000    58.66000000    97.25000000
   H     97.90000000    58.51000000    99.04000000
   N     94.05000000    55.68000000    97.04000000
   C     92.75000000    55.05000000    96.94000000
   H     92.03600000    55.75600000    96.51600000
   H     92.81900000    54.17400000    96.29600000
   H     92.41500000    54.74700000    97.93200000
   H     94.37000000    56.06000000    96.16000000
  Ca     96.98000000    63.22000000    98.71000000
   O     99.30000000    61.90000000    98.69000000
   H    100.10000000    61.69000000    99.17000000
   H     99.33000000    61.35000000    97.91000000

Ca 1.70



