%chk=holoCaM_loop3_15.0.chk
%nprocshared=48
%mem=10GB
%nosave
#b3lyp/svp scf=(tight,noincore) Test 
#IOP(5/87=12) Density=Current Pop=(MK,readradii) iop(6/33=2) iop(6/42=6)

holoCaM_loop3_15.0 

   0   1
   C     94.02000000    53.69000000     4.19600000
   C     95.02000000    54.71000000     3.66600000
   O     96.08000000    54.37000000     3.14600000
   H     93.09400000    53.76000000     3.62600000
   H     94.43400000    52.68700000     4.09300000
   H     93.81500000    53.89300000     5.24700000
   N     94.61000000    55.97000000     3.74600000
   C     95.57000000    57.05000000     3.64600000
   C     96.45000000    57.04000000     4.88600000
   O     95.90000000    57.17000000     5.97600000
   C     94.80000000    58.36000000     3.47600000
   C     95.75000000    59.51000000     3.18600000
   O     95.65000000    60.56000000     3.86600000
   O     96.66000000    59.32000000     2.35600000
   H     93.69000000    56.21000000     4.10600000
   H     96.05000000    56.79000000     2.70600000
   H     94.19000000    58.67000000     4.32600000
   H     94.12000000    58.28000000     2.63600000
   N     97.76000000    57.01000000     4.62600000
   C     98.79000000    56.96000000     5.64600000
   C     99.83000000    58.07000000     5.55600000
   O    100.80000000    58.11000000     6.30600000
   C     99.38000000    55.55000000     5.62600000
   C     98.53000000    54.44000000     6.22600000
   C     99.27000000    53.12000000     6.06600000
   C     98.63000000    51.92000000     6.76600000
   N     97.19000000    51.85000000     6.47600000
   H     98.07000000    56.90000000     3.66600000
   H     98.35000000    57.13000000     6.62600000
   H    100.29000000    55.51000000     6.22600000
   H     99.67000000    55.26000000     4.61600000
   H     97.58000000    54.48000000     5.69600000
   H     98.44000000    54.75000000     7.26600000
   H    100.24000000    53.17000000     6.56600000
   H     99.36000000    52.82000000     5.02600000
   H     98.80000000    52.06000000     7.83600000
   H     99.10000000    50.98000000     6.46600000
   H     96.68000000    52.68000000     6.75600000
   H     97.02000000    51.73000000     5.48600000
   H     96.70000000    51.18000000     7.04600000
   N     99.72000000    58.98000000     4.57600000
   C    100.59000000    60.13000000     4.42600000
   C     99.84000000    61.45000000     4.38600000
   O    100.41000000    62.50000000     4.07600000
   C    101.66000000    59.97000000     3.35600000
   C    101.10000000    59.87000000     1.94600000
   O    101.79000000    59.47000000     0.97600000
   O     99.89000000    60.13000000     1.80600000
   H     99.00000000    58.92000000     3.87600000
   H    101.21000000    60.20000000     5.32600000
   H    102.14000000    59.04000000     3.66600000
   H    102.17000000    60.93000000     3.30600000
   N     98.56000000    61.49000000     4.74600000
   C     97.85000000    62.71000000     5.04600000
   C     97.61000000    63.62000000     3.84600000
   O     97.50000000    64.84000000     3.95600000
   H     98.18000000    60.59000000     5.02600000
   H     98.30000000    63.20000000     5.91600000
   H     96.83000000    62.47000000     5.34600000
   N     97.68000000    63.01000000     2.65600000
   C     97.43000000    63.63000000     1.36600000
   C     96.00000000    63.37000000     0.91600000
   O     95.62000000    64.05000000    -0.03400000
   C     98.57000000    63.17000000     0.46600000
   C     98.14000000    62.13000000    -0.55400000
   N     98.39000000    62.46000000    -1.82400000
   O     97.67000000    61.04000000    -0.22400000
   H     97.74000000    62.01000000     2.73600000
   H     97.50000000    64.71000000     1.49600000
   H     99.41000000    62.81000000     1.04600000
   H     98.84000000    64.00000000    -0.19400000
   H     98.84000000    63.35000000    -1.99400000
   H     98.21000000    61.83000000    -2.59400000
   N     95.24000000    62.52000000     1.61600000
   C     93.82000000    62.33000000     1.39600000
   C     93.50000000    61.27000000     0.35600000
   O     92.34000000    60.96000000     0.10600000
   H     95.65000000    61.91000000     2.30600000
   H     93.39000000    63.29000000     1.13600000
   H     93.29000000    61.96000000     2.27600000
   N     94.44000000    60.80000000    -0.48400000
   C     94.24000000    59.99000000    -1.66400000
   C     95.09000000    58.73000000    -1.58400000
   O     96.23000000    58.75000000    -1.11400000
   C     94.72000000    60.77000000    -2.88400000
   C     94.09000000    62.11000000    -3.15400000
   C     94.85000000    63.12000000    -3.77400000
   C     92.74000000    62.34000000    -2.89400000
   C     94.26000000    64.31000000    -4.20400000
   C     92.12000000    63.53000000    -3.27400000
   C     92.87000000    64.46000000    -4.02400000
   O     92.35000000    65.69000000    -4.32400000
   H     95.37000000    61.07000000    -0.22400000
   H     93.19000000    59.72000000    -1.75400000
   H     94.49000000    60.17000000    -3.77400000
   H     95.81000000    60.80000000    -2.88400000
   H     95.91000000    62.95000000    -3.89400000
   H     92.16000000    61.54000000    -2.44400000
   H     94.88000000    65.13000000    -4.56400000
   H     91.10000000    63.68000000    -2.93400000
   H     91.54000000    65.80000000    -3.82400000
   N     94.52000000    57.57000000    -1.93400000
   C     95.24000000    56.31000000    -1.82400000
   C     96.17000000    56.11000000    -3.01400000
   O     95.85000000    56.46000000    -4.14400000
   C     94.28000000    55.13000000    -1.75400000
   C     92.98000000    55.34000000    -0.98400000
   C     94.98000000    53.88000000    -1.21400000
   C     93.09000000    55.75000000     0.48600000
   H     93.68000000    57.59000000    -2.48400000
   H     95.82000000    56.46000000    -0.91400000
   H     93.88000000    54.92000000    -2.74400000
   H     92.36000000    54.45000000    -1.07400000
   H     92.40000000    56.18000000    -1.35400000
   H     94.26000000    53.06000000    -1.16400000
   H     95.86000000    53.63000000    -1.79400000
   H     95.32000000    54.06000000    -0.19400000
   H     93.23000000    56.82000000     0.62600000
   H     92.22000000    55.44000000     1.06600000
   H     93.96000000    55.26000000     0.90600000
   N     97.29000000    55.43000000    -2.74400000
   C     98.26000000    55.00000000    -3.73400000
   C     98.60000000    53.51000000    -3.67400000
   O     98.28000000    52.91000000    -2.65400000
   C     99.50000000    55.81000000    -3.37400000
   O     99.99000000    55.40000000    -2.11400000
   H     97.57000000    55.19000000    -1.80400000
   H     97.95000000    55.14000000    -4.76400000
   H     99.28000000    56.87000000    -3.39400000
   H    100.34000000    55.61000000    -4.04400000
   H     99.51000000    55.72000000    -1.34400000
   N     99.20000000    52.92000000    -4.70400000
   C     99.57000000    51.52000000    -4.67400000
   C    100.17000000    51.02000000    -3.36400000
   O     99.74000000    49.95000000    -2.96400000
   C    100.33000000    51.17000000    -5.95400000
   H     99.29000000    53.48000000    -5.54400000
   H     98.68000000    50.89000000    -4.71400000
   H    100.28000000    50.11000000    -6.19400000
   H     99.93000000    51.79000000    -6.75400000
   H    101.42000000    51.31000000    -5.99400000
   N    101.08000000    51.67000000    -2.63400000
   C    101.70000000    51.11000000    -1.45400000
   C    100.63000000    51.01000000    -0.37400000
   O    100.62000000    50.01000000     0.34600000
   C    102.82000000    51.99000000    -0.90400000
   H    101.52000000    52.47000000    -3.05400000
   H    102.15000000    50.15000000    -1.70400000
   H    103.81000000    51.79000000    -1.30400000
   H    102.54000000    53.04000000    -0.75400000
   H    102.91000000    51.74000000     0.15600000
   N     99.74000000    52.00000000    -0.22400000
   C     98.60000000    51.94000000     0.66600000
   C     97.59000000    50.89000000     0.22600000
   O     97.06000000    50.20000000     1.10600000
   C     97.94000000    53.32000000     0.70600000
   C     98.71000000    54.30000000     1.58600000
   C     98.50000000    55.73000000     1.10600000
   O     98.47000000    56.68000000     1.92600000
   O     98.35000000    55.99000000    -0.10400000
   H     99.71000000    52.75000000    -0.89400000
   H     98.93000000    51.71000000     1.67600000
   H     96.94000000    53.22000000     1.13600000
   H     97.82000000    53.66000000    -0.32400000
   H     99.76000000    54.14000000     1.38600000
   H     98.50000000    54.07000000     2.63600000
   N     97.34000000    50.70000000    -1.07400000
   C     96.37000000    49.72000000    -1.52400000
   H     95.48100000    50.23200000    -1.89200000
   H     96.80200000    49.12200000    -2.32600000
   H     96.09600000    49.07000000    -0.69300000
   H     97.89000000    51.10000000    -1.81400000
  Ca     98.43000000    58.61000000     0.29000000
   O     99.56000000    59.06000000    -2.02400000
   H     99.21000000    59.53000000    -2.77400000
   H    100.33000000    58.60000000    -2.36400000

Ca 1.70



