%chk=CaMKII_loop3_36.0.chk
%nprocshared=48
%mem=10GB
%nosave
#b3lyp/svp scf=(tight,noincore) Test 
#IOP(5/87=12) Density=Current Pop=(MK,readradii) iop(6/33=2) iop(6/42=6)

CaMKII_loop3_36.0 

   0   1
   C     88.46000000    64.90000000    32.21000000
   C     88.07000000    64.71000000    33.67000000
   O     88.66000000    63.92000000    34.40000000
   H     89.49500000    64.58900000    32.06700000
   H     87.80900000    64.29600000    31.57800000
   H     88.35700000    65.95100000    31.94000000
   N     87.08000000    65.46000000    34.17000000
   C     86.49000000    65.33000000    35.48000000
   C     85.74000000    64.01000000    35.57000000
   O     84.70000000    63.81000000    34.96000000
   C     85.72000000    66.64000000    35.65000000
   C     85.30000000    66.76000000    37.10000000
   O     85.53000000    65.83000000    37.90000000
   O     84.74000000    67.83000000    37.41000000
   H     86.69000000    66.16000000    33.55000000
   H     87.22000000    65.29000000    36.29000000
   H     84.87000000    66.48000000    34.99000000
   H     86.28000000    67.48000000    35.23000000
   N     86.22000000    63.08000000    36.40000000
   C     85.85000000    61.68000000    36.45000000
   C     84.54000000    61.40000000    37.16000000
   O     83.53000000    60.88000000    36.67000000
   C     87.06000000    60.88000000    36.91000000
   C     86.91000000    59.38000000    36.63000000
   C     87.93000000    58.47000000    37.30000000
   C     87.78000000    57.02000000    36.84000000
   N     88.76000000    56.07000000    37.39000000
   H     86.95000000    63.37000000    37.04000000
   H     85.58000000    61.36000000    35.44000000
   H     87.08000000    60.91000000    38.00000000
   H     87.98000000    61.26000000    36.48000000
   H     87.15000000    59.20000000    35.59000000
   H     85.90000000    59.03000000    36.86000000
   H     87.96000000    58.59000000    38.39000000
   H     88.86000000    58.85000000    36.88000000
   H     87.77000000    56.99000000    35.75000000
   H     86.87000000    56.66000000    37.33000000
   H     89.71000000    56.28000000    37.12000000
   H     88.85000000    56.02000000    38.40000000
   H     88.55000000    55.11000000    37.19000000
   N     84.43000000    62.01000000    38.35000000
   C     83.20000000    62.17000000    39.10000000
   C     82.33000000    63.37000000    38.78000000
   O     81.17000000    63.38000000    39.19000000
   C     83.43000000    62.11000000    40.61000000
   C     84.34000000    63.22000000    41.13000000
   O     84.72000000    64.12000000    40.36000000
   O     84.57000000    63.31000000    42.35000000
   H     85.19000000    62.63000000    38.59000000
   H     82.66000000    61.26000000    38.84000000
   H     83.82000000    61.15000000    40.95000000
   H     82.46000000    62.20000000    41.08000000
   N     82.89000000    64.35000000    38.08000000
   C     82.19000000    65.50000000    37.53000000
   C     82.15000000    66.71000000    38.46000000
   O     81.34000000    67.61000000    38.22000000
   H     83.83000000    64.16000000    37.77000000
   H     81.15000000    65.30000000    37.28000000
   H     82.64000000    65.73000000    36.57000000
   N     82.84000000    66.66000000    39.60000000
   C     82.52000000    67.61000000    40.64000000
   C     82.84000000    69.08000000    40.40000000
   O     82.69000000    69.87000000    41.33000000
   C     83.07000000    67.15000000    41.99000000
   C     84.53000000    67.52000000    42.24000000
   N     84.86000000    67.83000000    43.50000000
   O     85.43000000    67.34000000    41.42000000
   H     83.42000000    65.85000000    39.75000000
   H     81.44000000    67.62000000    40.78000000
   H     82.94000000    66.08000000    42.14000000
   H     82.52000000    67.63000000    42.79000000
   H     84.18000000    67.86000000    44.24000000
   H     85.82000000    68.09000000    43.67000000
   N     83.39000000    69.50000000    39.26000000
   C     83.80000000    70.85000000    38.94000000
   C     85.30000000    70.99000000    38.75000000
   O     85.83000000    72.08000000    38.54000000
   H     83.56000000    68.78000000    38.58000000
   H     83.41000000    71.56000000    39.68000000
   H     83.38000000    71.16000000    37.99000000
   N     86.14000000    69.97000000    38.92000000
   C     87.56000000    70.05000000    39.18000000
   C     88.15000000    68.76000000    38.61000000
   O     87.59000000    67.71000000    38.90000000
   C     87.71000000    70.09000000    40.70000000
   C     87.18000000    71.31000000    41.41000000
   C     87.99000000    72.45000000    41.51000000
   C     85.91000000    71.32000000    41.99000000
   C     87.66000000    73.48000000    42.40000000
   C     85.46000000    72.45000000    42.69000000
   C     86.39000000    73.45000000    43.02000000
   O     86.16000000    74.42000000    43.95000000
   H     85.68000000    69.08000000    39.06000000
   H     87.99000000    70.92000000    38.69000000
   H     88.78000000    70.01000000    40.92000000
   H     87.27000000    69.15000000    41.05000000
   H     89.00000000    72.45000000    41.13000000
   H     85.22000000    70.49000000    41.96000000
   H     88.41000000    74.24000000    42.52000000
   H     84.46000000    72.40000000    43.10000000
   H     85.52000000    74.20000000    44.63000000
   N     89.26000000    68.77000000    37.86000000
   C     90.15000000    67.67000000    37.57000000
   C     91.35000000    67.73000000    38.50000000
   O     91.94000000    68.78000000    38.73000000
   C     90.75000000    67.62000000    36.17000000
   C     90.01000000    68.42000000    35.10000000
   C     90.96000000    66.17000000    35.77000000
   C     90.96000000    68.74000000    33.95000000
   H     89.48000000    69.69000000    37.52000000
   H     89.66000000    66.72000000    37.82000000
   H     91.71000000    68.15000000    36.19000000
   H     89.58000000    69.34000000    35.49000000
   H     89.20000000    67.77000000    34.75000000
   H     89.98000000    65.71000000    35.67000000
   H     91.40000000    66.01000000    34.78000000
   H     91.44000000    65.52000000    36.51000000
   H     90.43000000    69.16000000    33.09000000
   H     91.68000000    69.47000000    34.30000000
   H     91.45000000    67.87000000    33.51000000
   N     91.68000000    66.56000000    39.06000000
   C     92.87000000    66.32000000    39.84000000
   C     93.73000000    65.23000000    39.21000000
   O     93.33000000    64.79000000    38.13000000
   C     92.40000000    65.93000000    41.24000000
   O     91.53000000    64.82000000    41.24000000
   H     91.10000000    65.76000000    38.87000000
   H     93.42000000    67.26000000    39.90000000
   H     92.06000000    66.77000000    41.84000000
   H     93.24000000    65.55000000    41.82000000
   H     91.51000000    64.45000000    42.13000000
   N     94.94000000    64.93000000    39.69000000
   C     95.97000000    64.30000000    38.89000000
   C     95.63000000    62.85000000    38.57000000
   O     95.89000000    62.34000000    37.49000000
   C     97.34000000    64.31000000    39.56000000
   H     95.21000000    65.26000000    40.61000000
   H     96.00000000    64.77000000    37.91000000
   H     98.14000000    63.85000000    38.98000000
   H     97.67000000    65.33000000    39.79000000
   H     97.35000000    63.72000000    40.47000000
   N     94.99000000    62.16000000    39.53000000
   C     94.50000000    60.81000000    39.34000000
   C     93.47000000    60.65000000    38.24000000
   O     93.52000000    59.80000000    37.35000000
   C     93.88000000    60.35000000    40.65000000
   H     94.87000000    62.58000000    40.44000000
   H     95.27000000    60.06000000    39.16000000
   H     92.93000000    60.84000000    40.86000000
   H     93.70000000    59.28000000    40.57000000
   H     94.62000000    60.52000000    41.44000000
   N     92.57000000    61.63000000    38.15000000
   C     91.66000000    61.77000000    37.03000000
   C     92.36000000    62.17000000    35.74000000
   O     91.93000000    61.74000000    34.68000000
   C     90.59000000    62.78000000    37.45000000
   C     89.94000000    62.63000000    38.82000000
   C     88.87000000    63.69000000    39.04000000
   O     89.21000000    64.89000000    39.00000000
   O     87.66000000    63.37000000    39.10000000
   H     92.53000000    62.33000000    38.88000000
   H     91.20000000    60.81000000    36.80000000
   H     89.82000000    62.71000000    36.68000000
   H     90.97000000    63.79000000    37.32000000
   H     90.71000000    62.81000000    39.58000000
   H     89.53000000    61.62000000    38.84000000
   N     93.42000000    62.97000000    35.84000000
   C     94.09000000    63.37000000    34.61000000
   H     95.09600000    62.95000000    34.59200000
   H     93.52700000    63.00100000    33.75300000
   H     94.15000000    64.45700000    34.56500000
   H     93.72000000    63.36000000    36.72000000
  Ca     86.80000000    65.59000000    40.07000000
   O     89.12000000    66.38000000    41.27000000
   H     89.81000000    65.76000000    41.05000000
   H     89.58000000    67.13000000    41.64000000

Ca 1.70



