%chk=CaMKII_loop3_38.0.chk
%nprocshared=48
%mem=10GB
%nosave
#b3lyp/svp scf=(tight,noincore) Test 
#IOP(5/87=12) Density=Current Pop=(MK,readradii) iop(6/33=2) iop(6/42=6)

CaMKII_loop3_38.0 

   0   1
   C     82.77800000    66.44000000    36.06000000
   C     82.11800000    66.37000000    37.43000000
   O     82.09800000    65.25000000    37.93000000
   H     83.79000000    66.04000000    36.12400000
   H     82.20000000    65.85200000    35.34700000
   H     82.81800000    67.47700000    35.72800000
   N     81.42800000    67.37000000    38.00000000
   C     80.74800000    67.35000000    39.27000000
   C     79.35800000    66.71000000    39.27000000
   O     78.49800000    67.07000000    38.46000000
   C     80.59800000    68.76000000    39.83000000
   C     79.83800000    68.78000000    41.15000000
   O     79.78800000    67.79000000    41.91000000
   O     79.57800000    69.92000000    41.58000000
   H     81.45800000    68.27000000    37.54000000
   H     81.36800000    66.79000000    39.97000000
   H     80.02800000    69.39000000    39.14000000
   H     81.62800000    69.06000000    39.98000000
   N     79.28800000    65.69000000    40.12000000
   C     78.29800000    64.63000000    40.15000000
   C     77.26800000    64.66000000    41.26000000
   O     76.18800000    64.08000000    41.17000000
   C     79.13800000    63.36000000    40.00000000
   C     78.31800000    62.10000000    39.72000000
   C     79.16800000    60.84000000    39.78000000
   C     79.58800000    60.53000000    41.22000000
   N     80.12800000    59.18000000    41.47000000
   H     79.99800000    65.66000000    40.84000000
   H     77.77800000    64.68000000    39.19000000
   H     79.65800000    63.15000000    40.93000000
   H     79.93800000    63.40000000    39.26000000
   H     77.89800000    62.24000000    38.72000000
   H     77.51800000    62.06000000    40.46000000
   H     80.05800000    61.02000000    39.18000000
   H     78.65800000    60.03000000    39.26000000
   H     78.71800000    60.76000000    41.83000000
   H     80.25800000    61.32000000    41.56000000
   H     79.90800000    58.88000000    42.41000000
   H     79.61800000    58.49000000    40.95000000
   H     81.11800000    59.09000000    41.32000000
   N     77.66800000    65.38000000    42.32000000
   C     76.71800000    65.71000000    43.36000000
   C     76.17800000    67.13000000    43.31000000
   O     75.11800000    67.36000000    43.90000000
   C     77.27800000    65.34000000    44.73000000
   C     78.62800000    66.02000000    44.89000000
   O     78.77800000    67.27000000    44.88000000
   O     79.69800000    65.38000000    44.96000000
   H     78.55800000    65.87000000    42.33000000
   H     75.81800000    65.11000000    43.27000000
   H     77.38800000    64.25000000    44.73000000
   H     76.54800000    65.70000000    45.45000000
   N     76.82800000    68.08000000    42.63000000
   C     76.46800000    69.46000000    42.40000000
   C     76.96800000    70.43000000    43.46000000
   O     76.68800000    71.62000000    43.32000000
   H     77.52800000    67.72000000    42.01000000
   H     75.38800000    69.64000000    42.43000000
   H     76.76800000    69.76000000    41.39000000
   N     77.73800000    70.01000000    44.46000000
   C     78.23800000    70.76000000    45.60000000
   C     79.21800000    71.82000000    45.11000000
   O     79.68800000    72.58000000    45.96000000
   C     78.78800000    69.83000000    46.67000000
   C     80.23800000    69.44000000    46.46000000
   N     80.87800000    68.81000000    47.45000000
   O     80.82800000    69.45000000    45.38000000
   H     78.01800000    69.04000000    44.54000000
   H     77.38800000    71.28000000    46.04000000
   H     78.09800000    69.00000000    46.86000000
   H     78.79800000    70.38000000    47.61000000
   H     80.33800000    68.54000000    48.26000000
   H     81.79800000    68.44000000    47.25000000
   N     79.51800000    71.87000000    43.81000000
   C     80.31800000    72.90000000    43.18000000
   C     81.80800000    72.59000000    43.07000000
   O     82.53800000    73.48000000    42.65000000
   H     79.08800000    71.19000000    43.21000000
   H     80.24800000    73.91000000    43.59000000
   H     79.90800000    72.98000000    42.17000000
   N     82.21800000    71.46000000    43.66000000
   C     83.61800000    71.10000000    43.68000000
   C     83.87800000    69.86000000    42.83000000
   O     83.09800000    68.92000000    42.95000000
   C     84.21800000    70.91000000    45.07000000
   C     83.81800000    71.87000000    46.16000000
   C     83.73800000    73.23000000    45.87000000
   C     83.45800000    71.45000000    47.45000000
   C     83.37800000    74.21000000    46.81000000
   C     82.86800000    72.38000000    48.32000000
   C     82.81800000    73.76000000    48.02000000
   O     82.25800000    74.58000000    48.96000000
   H     81.59800000    70.80000000    44.09000000
   H     84.15800000    71.93000000    43.23000000
   H     85.28800000    70.86000000    44.90000000
   H     83.86800000    69.93000000    45.42000000
   H     83.87800000    73.52000000    44.84000000
   H     83.58800000    70.43000000    47.79000000
   H     83.20800000    75.25000000    46.56000000
   H     82.44800000    72.01000000    49.24000000
   H     81.87800000    74.12000000    49.71000000
   N     85.03800000    69.76000000    42.16000000
   C     85.46800000    68.49000000    41.63000000
   C     86.45800000    67.94000000    42.65000000
   O     87.44800000    68.54000000    43.06000000
   C     86.10800000    68.54000000    40.24000000
   C     85.13800000    69.19000000    39.26000000
   C     86.39800000    67.10000000    39.82000000
   C     85.90800000    69.63000000    38.01000000
   H     85.64800000    70.57000000    42.13000000
   H     84.54800000    67.91000000    41.59000000
   H     87.04800000    69.10000000    40.25000000
   H     84.66800000    70.08000000    39.68000000
   H     84.34800000    68.49000000    39.00000000
   H     86.77800000    67.06000000    38.80000000
   H     87.17800000    66.68000000    40.46000000
   H     85.48800000    66.52000000    39.92000000
   H     85.21800000    69.96000000    37.24000000
   H     86.57800000    70.45000000    38.24000000
   H     86.46800000    68.79000000    37.59000000
   N     86.14800000    66.72000000    43.10000000
   C     86.94800000    65.80000000    43.89000000
   C     87.71800000    64.76000000    43.10000000
   O     87.34800000    64.36000000    42.00000000
   C     86.08800000    65.21000000    45.00000000
   O     85.17800000    64.25000000    44.50000000
   H     85.18800000    66.44000000    42.97000000
   H     87.68800000    66.36000000    44.46000000
   H     85.59800000    66.13000000    45.31000000
   H     86.75800000    64.76000000    45.74000000
   H     84.39800000    64.75000000    44.24000000
   N     88.64800000    64.00000000    43.68000000
   C     89.42800000    62.98000000    43.01000000
   C     88.69800000    61.68000000    42.70000000
   O     89.01800000    60.95000000    41.77000000
   C     90.69800000    62.71000000    43.82000000
   H     88.88800000    64.20000000    44.64000000
   H     89.78800000    63.35000000    42.05000000
   H     91.26800000    61.95000000    43.28000000
   H     91.30800000    63.61000000    43.90000000
   H     90.50800000    62.49000000    44.87000000
   N     87.71800000    61.40000000    43.56000000
   C     86.70800000    60.39000000    43.30000000
   C     85.83800000    60.78000000    42.12000000
   O     85.49800000    59.93000000    41.30000000
   C     85.82800000    60.06000000    44.51000000
   H     87.56800000    61.92000000    44.41000000
   H     87.13800000    59.44000000    42.97000000
   H     85.16800000    60.90000000    44.72000000
   H     85.23800000    59.17000000    44.30000000
   H     86.42800000    59.88000000    45.41000000
   N     85.61800000    62.07000000    41.85000000
   C     84.80800000    62.45000000    40.71000000
   C     85.49800000    62.56000000    39.36000000
   O     84.94800000    62.14000000    38.34000000
   C     84.16800000    63.81000000    40.99000000
   C     83.00800000    63.67000000    41.97000000
   C     82.49800000    65.00000000    42.50000000
   O     83.23800000    65.76000000    43.17000000
   O     81.30800000    65.33000000    42.30000000
   H     85.88800000    62.84000000    42.44000000
   H     84.05800000    61.67000000    40.57000000
   H     83.70800000    64.28000000    40.12000000
   H     84.89800000    64.52000000    41.35000000
   H     83.26800000    63.03000000    42.82000000
   H     82.19800000    63.24000000    41.37000000
   N     86.73800000    63.04000000    39.29000000
   C     87.57800000    62.98000000    38.11000000
   H     88.55400000    62.57600000    38.38000000
   H     87.11200000    62.33600000    37.36400000
   H     87.70100000    63.98200000    37.70000000
   H     87.11800000    63.38000000    40.16000000
  Ca     81.22000000    67.35000000    43.90000000
   O     82.85000000    67.02000000    46.17000000
   H     83.67000000    67.48000000    46.33000000
   H     82.75000000    66.43000000    46.93000000

Ca 1.70



