%chk=CaMKII_loop3_41.0.chk
%nprocshared=48
%mem=10GB
%nosave
#b3lyp/svp scf=(tight,noincore) Test 
#IOP(5/87=12) Density=Current Pop=(MK,readradii) iop(6/33=2) iop(6/42=6)

CaMKII_loop3_41.0 

   0   1
   C     72.83000000    48.59000000    30.84000000
   C     72.46000000    47.48000000    31.81000000
   O     73.00000000    46.38000000    31.84000000
   H     73.84500000    48.43000000    30.47500000
   H     72.13700000    48.58400000    29.99900000
   H     72.77600000    49.55200000    31.35000000
   N     71.51000000    47.83000000    32.68000000
   C     70.92000000    46.89000000    33.61000000
   C     69.76000000    46.11000000    33.01000000
   O     68.60000000    46.51000000    33.14000000
   C     70.60000000    47.46000000    34.99000000
   C     70.13000000    46.38000000    35.96000000
   O     69.60000000    46.78000000    37.01000000
   O     70.38000000    45.19000000    35.67000000
   H     71.15000000    48.77000000    32.65000000
   H     71.71000000    46.19000000    33.89000000
   H     69.82000000    48.21000000    34.92000000
   H     71.54000000    47.86000000    35.38000000
   N     70.10000000    45.07000000    32.24000000
   C     69.20000000    44.35000000    31.35000000
   C     68.18000000    43.52000000    32.11000000
   O     66.96000000    43.62000000    31.95000000
   C     70.00000000    43.46000000    30.40000000
   C     70.63000000    44.28000000    29.28000000
   C     71.37000000    43.37000000    28.30000000
   C     70.52000000    42.28000000    27.66000000
   N     71.39000000    41.50000000    26.76000000
   H     71.09000000    44.88000000    32.15000000
   H     68.66000000    45.11000000    30.79000000
   H     69.37000000    42.67000000    29.98000000
   H     70.81000000    42.99000000    30.96000000
   H     71.43000000    44.90000000    29.69000000
   H     69.91000000    44.84000000    28.70000000
   H     72.16000000    42.78000000    28.78000000
   H     71.82000000    43.99000000    27.53000000
   H     69.72000000    42.76000000    27.09000000
   H     70.07000000    41.72000000    28.47000000
   H     70.94000000    40.67000000    26.41000000
   H     71.76000000    42.11000000    26.05000000
   H     72.20000000    41.14000000    27.24000000
   N     68.67000000    42.73000000    33.07000000
   C     67.79000000    41.93000000    33.89000000
   C     67.17000000    42.70000000    35.05000000
   O     66.41000000    42.15000000    35.84000000
   C     68.43000000    40.60000000    34.27000000
   C     69.55000000    40.75000000    35.28000000
   O     69.93000000    39.74000000    35.91000000
   O     70.11000000    41.85000000    35.50000000
   H     69.65000000    42.81000000    33.32000000
   H     66.95000000    41.60000000    33.29000000
   H     68.86000000    40.13000000    33.38000000
   H     67.60000000    39.94000000    34.56000000
   N     67.46000000    44.00000000    35.18000000
   C     66.92000000    44.93000000    36.14000000
   C     67.25000000    44.70000000    37.61000000
   O     66.51000000    45.16000000    38.48000000
   H     68.20000000    44.35000000    34.59000000
   H     65.84000000    44.93000000    35.99000000
   H     67.23000000    45.90000000    35.76000000
   N     68.39000000    44.11000000    37.98000000
   C     68.70000000    43.60000000    39.30000000
   C     69.42000000    44.64000000    40.15000000
   O     69.90000000    44.27000000    41.22000000
   C     69.39000000    42.25000000    39.15000000
   C     70.89000000    42.32000000    38.90000000
   N     71.64000000    41.36000000    39.43000000
   O     71.38000000    43.18000000    38.16000000
   H     68.97000000    43.83000000    37.20000000
   H     67.73000000    43.45000000    39.78000000
   H     68.97000000    41.68000000    38.32000000
   H     69.36000000    41.74000000    40.12000000
   H     71.23000000    40.62000000    39.98000000
   H     72.64000000    41.26000000    39.33000000
   N     69.57000000    45.88000000    39.67000000
   C     70.29000000    46.94000000    40.34000000
   C     71.74000000    47.21000000    39.96000000
   O     72.35000000    48.08000000    40.58000000
   H     69.22000000    46.08000000    38.74000000
   H     70.24000000    46.79000000    41.41000000
   H     69.88000000    47.92000000    40.08000000
   N     72.24000000    46.59000000    38.89000000
   C     73.64000000    46.52000000    38.53000000
   C     73.91000000    46.31000000    37.04000000
   O     73.15000000    45.58000000    36.41000000
   C     74.20000000    45.34000000    39.32000000
   C     74.15000000    45.39000000    40.82000000
   C     75.00000000    46.26000000    41.51000000
   C     73.39000000    44.47000000    41.55000000
   C     75.16000000    46.11000000    42.90000000
   C     73.48000000    44.33000000    42.94000000
   C     74.35000000    45.21000000    43.62000000
   O     74.48000000    45.20000000    44.98000000
   H     71.54000000    46.11000000    38.34000000
   H     74.09000000    47.46000000    38.83000000
   H     75.27000000    45.23000000    39.11000000
   H     73.70000000    44.42000000    39.02000000
   H     75.74000000    46.86000000    40.99000000
   H     72.75000000    43.72000000    41.09000000
   H     75.86000000    46.72000000    43.44000000
   H     72.98000000    43.58000000    43.53000000
   H     73.73000000    44.83000000    45.44000000
   N     74.98000000    46.97000000    36.60000000
   C     75.72000000    46.65000000    35.39000000
   C     76.74000000    45.55000000    35.60000000
   O     77.55000000    45.62000000    36.52000000
   C     76.22000000    47.89000000    34.65000000
   C     75.21000000    49.03000000    34.68000000
   C     76.78000000    47.51000000    33.28000000
   C     75.64000000    50.43000000    34.25000000
   H     75.41000000    47.57000000    37.29000000
   H     74.92000000    46.18000000    34.82000000
   H     77.07000000    48.30000000    35.19000000
   H     74.77000000    49.20000000    35.67000000
   H     74.39000000    48.69000000    34.04000000
   H     75.97000000    47.15000000    32.64000000
   H     77.14000000    48.39000000    32.75000000
   H     77.55000000    46.74000000    33.29000000
   H     76.17000000    50.94000000    35.05000000
   H     76.28000000    50.42000000    33.37000000
   H     74.80000000    51.06000000    33.97000000
   N     76.73000000    44.60000000    34.66000000
   C     77.75000000    43.58000000    34.48000000
   C     78.45000000    43.57000000    33.13000000
   O     77.92000000    44.11000000    32.17000000
   C     77.28000000    42.22000000    34.98000000
   O     75.96000000    41.93000000    34.59000000
   H     75.91000000    44.55000000    34.08000000
   H     78.62000000    43.81000000    35.10000000
   H     77.36000000    42.30000000    36.06000000
   H     77.85000000    41.39000000    34.57000000
   H     75.46000000    42.75000000    34.53000000
   N     79.61000000    42.91000000    33.00000000
   C     80.38000000    42.97000000    31.78000000
   C     79.76000000    42.43000000    30.50000000
   O     79.87000000    43.02000000    29.43000000
   C     81.71000000    42.27000000    32.01000000
   H     80.01000000    42.24000000    33.64000000
   H     80.69000000    44.01000000    31.63000000
   H     82.31000000    42.47000000    31.12000000
   H     82.31000000    42.58000000    32.87000000
   H     81.58000000    41.19000000    31.95000000
   N     79.17000000    41.25000000    30.65000000
   C     78.25000000    40.69000000    29.67000000
   C     77.08000000    41.58000000    29.25000000
   O     76.55000000    41.47000000    28.16000000
   C     77.75000000    39.35000000    30.18000000
   H     79.40000000    40.66000000    31.44000000
   H     78.85000000    40.53000000    28.77000000
   H     77.42000000    38.76000000    29.32000000
   H     78.55000000    38.81000000    30.70000000
   H     76.99000000    39.48000000    30.95000000
   N     76.66000000    42.49000000    30.13000000
   C     75.62000000    43.44000000    29.78000000
   C     76.14000000    44.61000000    28.95000000
   O     75.53000000    44.96000000    27.94000000
   C     74.85000000    43.81000000    31.05000000
   C     74.20000000    42.63000000    31.78000000
   C     73.42000000    43.12000000    32.99000000
   O     74.04000000    43.78000000    33.86000000
   O     72.21000000    42.88000000    33.15000000
   H     76.92000000    42.39000000    31.10000000
   H     74.89000000    42.94000000    29.14000000
   H     74.11000000    44.53000000    30.73000000
   H     75.52000000    44.30000000    31.75000000
   H     75.07000000    42.10000000    32.17000000
   H     73.57000000    42.07000000    31.10000000
   N     77.22000000    45.23000000    29.43000000
   C     77.86000000    46.36000000    28.80000000
   H     78.84700000    46.06500000    28.44300000
   H     77.25600000    46.69800000    27.95800000
   H     77.96200000    47.17000000    29.52200000
   H     77.52000000    44.93000000    30.35000000
  Ca     72.20000000    43.32000000    35.72000000
   O     74.42000000    42.68000000    37.04000000
   H     75.19000000    42.98000000    37.52000000
   H     74.34000000    41.76000000    37.28000000

Ca 1.70



