%chk=CaMKII_loop3_42.0.chk
%nprocshared=48
%mem=10GB
%nosave
#b3lyp/svp scf=(tight,noincore) Test 
#IOP(5/87=12) Density=Current Pop=(MK,readradii) iop(6/33=2) iop(6/42=6)

CaMKII_loop3_42.0 

   0   1
   C     75.17000000    43.57000000    21.43000000
   C     73.85000000    42.89000000    21.76000000
   O     73.79000000    41.67000000    21.59000000
   H     75.94100000    42.81400000    21.28200000
   H     75.05900000    44.15700000    20.51900000
   H     75.45700000    44.22500000    22.25200000
   N     72.79000000    43.63000000    22.10000000
   C     71.59000000    43.01000000    22.62000000
   C     70.63000000    42.65000000    21.50000000
   O     69.68000000    43.37000000    21.20000000
   C     70.94000000    43.68000000    23.83000000
   C     69.67000000    42.90000000    24.15000000
   O     69.58000000    41.68000000    23.90000000
   O     68.85000000    43.55000000    24.83000000
   H     72.89000000    44.63000000    22.02000000
   H     71.85000000    42.04000000    23.04000000
   H     70.69000000    44.69000000    23.52000000
   H     71.64000000    43.66000000    24.67000000
   N     70.91000000    41.47000000    20.94000000
   C     70.49000000    40.87000000    19.69000000
   C     69.04000000    40.41000000    19.65000000
   O     68.39000000    40.52000000    18.62000000
   C     71.50000000    39.82000000    19.23000000
   C     71.34000000    39.44000000    17.76000000
   C     72.42000000    38.42000000    17.41000000
   C     72.66000000    37.92000000    15.99000000
   N     71.47000000    37.50000000    15.23000000
   H     71.65000000    41.04000000    21.47000000
   H     70.41000000    41.66000000    18.94000000
   H     71.34000000    38.88000000    19.76000000
   H     72.51000000    40.20000000    19.41000000
   H     71.29000000    40.33000000    17.13000000
   H     70.41000000    38.92000000    17.55000000
   H     72.17000000    37.53000000    17.99000000
   H     73.36000000    38.91000000    17.67000000
   H     73.37000000    37.09000000    15.94000000
   H     73.15000000    38.75000000    15.48000000
   H     71.81000000    37.32000000    14.30000000
   H     70.88000000    36.76000000    15.58000000
   H     70.80000000    38.26000000    15.13000000
   N     68.45000000    40.16000000    20.82000000
   C     67.08000000    39.77000000    21.11000000
   C     66.28000000    40.82000000    21.86000000
   O     65.05000000    40.73000000    21.88000000
   C     67.16000000    38.40000000    21.78000000
   C     67.96000000    38.44000000    23.08000000
   O     69.19000000    38.22000000    23.00000000
   O     67.45000000    38.73000000    24.18000000
   H     69.05000000    40.24000000    21.63000000
   H     66.58000000    39.56000000    20.16000000
   H     67.53000000    37.60000000    21.14000000
   H     66.15000000    38.08000000    22.02000000
   N     66.91000000    41.88000000    22.36000000
   C     66.15000000    43.04000000    22.80000000
   C     65.45000000    42.97000000    24.14000000
   O     64.61000000    43.82000000    24.43000000
   H     67.90000000    41.92000000    22.16000000
   H     65.43000000    43.35000000    22.04000000
   H     66.87000000    43.84000000    22.96000000
   N     65.82000000    42.06000000    25.05000000
   C     65.28000000    42.08000000    26.39000000
   C     65.74000000    43.22000000    27.29000000
   O     65.26000000    43.40000000    28.41000000
   C     65.39000000    40.74000000    27.12000000
   C     66.77000000    40.13000000    27.25000000
   N     66.87000000    39.06000000    28.04000000
   O     67.77000000    40.58000000    26.70000000
   H     66.68000000    41.52000000    24.95000000
   H     64.25000000    42.38000000    26.25000000
   H     64.81000000    40.00000000    26.56000000
   H     64.86000000    40.84000000    28.06000000
   H     65.97000000    38.65000000    28.22000000
   H     67.68000000    38.48000000    27.83000000
   N     66.75000000    43.96000000    26.82000000
   C     67.28000000    45.16000000    27.43000000
   C     68.58000000    44.79000000    28.12000000
   O     68.89000000    45.49000000    29.08000000
   H     67.22000000    43.72000000    25.96000000
   H     66.60000000    45.62000000    28.14000000
   H     67.54000000    45.82000000    26.60000000
   N     69.21000000    43.66000000    27.80000000
   C     70.37000000    43.06000000    28.41000000
   C     71.35000000    42.41000000    27.44000000
   O     70.97000000    41.59000000    26.61000000
   C     69.81000000    42.04000000    29.40000000
   C     69.07000000    42.62000000    30.57000000
   C     69.80000000    43.11000000    31.66000000
   C     67.67000000    42.64000000    30.63000000
   C     69.08000000    43.66000000    32.73000000
   C     66.97000000    43.24000000    31.69000000
   C     67.68000000    43.71000000    32.82000000
   O     67.10000000    44.34000000    33.88000000
   H     68.84000000    43.18000000    26.98000000
   H     70.87000000    43.79000000    29.05000000
   H     70.67000000    41.51000000    29.82000000
   H     69.25000000    41.33000000    28.79000000
   H     70.88000000    43.06000000    31.70000000
   H     67.12000000    42.15000000    29.84000000
   H     69.60000000    43.90000000    33.64000000
   H     65.90000000    43.33000000    31.66000000
   H     66.17000000    44.55000000    33.76000000
   N     72.65000000    42.59000000    27.67000000
   C     73.71000000    41.80000000    27.07000000
   C     74.13000000    40.68000000    28.02000000
   O     74.27000000    40.94000000    29.22000000
   C     74.82000000    42.74000000    26.60000000
   C     74.38000000    43.90000000    25.71000000
   C     75.93000000    41.87000000    26.03000000
   C     75.39000000    45.04000000    25.70000000
   H     72.85000000    43.25000000    28.41000000
   H     73.28000000    41.36000000    26.18000000
   H     75.27000000    43.20000000    27.48000000
   H     73.43000000    44.31000000    26.06000000
   H     74.15000000    43.60000000    24.69000000
   H     76.27000000    41.13000000    26.75000000
   H     75.46000000    41.38000000    25.17000000
   H     76.81000000    42.46000000    25.75000000
   H     75.61000000    45.34000000    26.72000000
   H     76.33000000    44.67000000    25.29000000
   H     75.03000000    45.77000000    24.97000000
   N     74.35000000    39.49000000    27.45000000
   C     74.98000000    38.28000000    27.92000000
   C     76.40000000    38.09000000    27.42000000
   O     76.69000000    38.50000000    26.29000000
   C     74.01000000    37.11000000    27.74000000
   O     73.92000000    36.78000000    26.37000000
   H     74.10000000    39.53000000    26.47000000
   H     75.21000000    38.44000000    28.97000000
   H     73.02000000    37.52000000    27.93000000
   H     74.16000000    36.23000000    28.37000000
   H     73.58000000    37.54000000    25.89000000
   N     77.31000000    37.43000000    28.13000000
   C     78.59000000    37.04000000    27.59000000
   C     78.54000000    36.42000000    26.20000000
   O     79.34000000    36.80000000    25.35000000
   C     79.33000000    36.23000000    28.66000000
   H     77.05000000    36.96000000    28.99000000
   H     79.11000000    37.98000000    27.40000000
   H     79.00000000    36.51000000    29.66000000
   H     79.05000000    35.19000000    28.52000000
   H     80.40000000    36.22000000    28.48000000
   N     77.58000000    35.55000000    25.90000000
   C     77.44000000    34.87000000    24.62000000
   C     77.20000000    35.83000000    23.47000000
   O     77.82000000    35.80000000    22.41000000
   C     76.25000000    33.94000000    24.86000000
   H     76.89000000    35.25000000    26.58000000
   H     78.35000000    34.30000000    24.44000000
   H     75.36000000    34.50000000    25.15000000
   H     76.08000000    33.52000000    23.87000000
   H     76.51000000    33.22000000    25.63000000
   N     76.28000000    36.79000000    23.64000000
   C     76.14000000    38.03000000    22.91000000
   C     77.38000000    38.87000000    22.65000000
   O     77.63000000    39.33000000    21.54000000
   C     75.08000000    39.00000000    23.44000000
   C     73.71000000    38.35000000    23.32000000
   C     72.63000000    39.15000000    24.04000000
   O     72.69000000    39.26000000    25.28000000
   O     71.76000000    39.76000000    23.39000000
   H     75.70000000    36.70000000    24.46000000
   H     75.74000000    37.78000000    21.92000000
   H     75.07000000    39.91000000    22.84000000
   H     75.36000000    39.37000000    24.42000000
   H     73.73000000    37.29000000    23.59000000
   H     73.46000000    38.33000000    22.26000000
   N     78.17000000    39.08000000    23.71000000
   C     79.42000000    39.80000000    23.62000000
   H     80.18500000    39.14800000    23.19900000
   H     79.29300000    40.67200000    22.97800000
   H     79.72700000    40.12300000    24.61500000
   H     77.83000000    38.72000000    24.59000000
  Ca     69.93000000    39.56000000    25.31000000
   O     69.67000000    38.41000000    27.71000000
   H     70.11000000    38.44000000    28.56000000
   H     69.56000000    37.48000000    27.53000000

Ca 1.70



