%chk=CaMKII_loop3_47.0.chk
%nprocshared=48
%mem=10GB
%nosave
#b3lyp/svp scf=(tight,noincore) Test 
#IOP(5/87=12) Density=Current Pop=(MK,readradii) iop(6/33=2) iop(6/42=6)

CaMKII_loop3_47.0 

   0   1
   C     19.58000000    35.23000000     0.78600000
   C     19.64000000    33.74000000     1.11600000
   O     19.59000000    32.94000000     0.18600000
   H     18.85400000    35.71700000     1.43700000
   H     20.56200000    35.67700000     0.94000000
   H     19.28000000    35.36100000    -0.25400000
   N     19.56000000    33.37000000     2.39600000
   C     19.50000000    32.04000000     2.96600000
   C     18.03000000    31.65000000     3.11600000
   O     17.29000000    32.29000000     3.86600000
   C     20.19000000    31.99000000     4.32600000
   C     20.11000000    30.64000000     5.02600000
   O     20.45000000    30.60000000     6.22600000
   O     19.72000000    29.64000000     4.36600000
   H     19.31000000    34.12000000     3.02600000
   H     20.01000000    31.35000000     2.29600000
   H     19.72000000    32.74000000     4.94600000
   H     21.25000000    32.24000000     4.20600000
   N     17.47000000    30.76000000     2.30600000
   C     16.04000000    30.54000000     2.28600000
   C     15.47000000    30.01000000     3.59600000
   O     14.33000000    30.31000000     3.96600000
   C     15.77000000    29.55000000     1.15600000
   C     14.35000000    29.56000000     0.59600000
   C     14.18000000    28.72000000    -0.66400000
   C     12.81000000    28.75000000    -1.33400000
   N     12.72000000    28.16000000    -2.67400000
   H     18.11000000    30.37000000     1.62600000
   H     15.63000000    31.49000000     1.96600000
   H     16.00000000    28.56000000     1.53600000
   H     16.43000000    29.71000000     0.30600000
   H     14.18000000    30.57000000     0.21600000
   H     13.61000000    29.28000000     1.35600000
   H     14.50000000    27.72000000    -0.38400000
   H     14.97000000    29.10000000    -1.31400000
   H     12.57000000    29.81000000    -1.39400000
   H     12.10000000    28.29000000    -0.64400000
   H     12.78000000    27.16000000    -2.53400000
   H     11.86000000    28.36000000    -3.16400000
   H     13.52000000    28.31000000    -3.27400000
   N     16.27000000    29.37000000     4.44600000
   C     15.81000000    28.49000000     5.49600000
   C     16.46000000    28.81000000     6.83600000
   O     15.92000000    28.46000000     7.87600000
   C     16.02000000    27.02000000     5.11600000
   C     17.48000000    26.64000000     4.87600000
   O     17.94000000    26.90000000     3.74600000
   O     17.98000000    25.97000000     5.80600000
   H     17.25000000    29.37000000     4.17600000
   H     14.77000000    28.58000000     5.79600000
   H     15.48000000    27.00000000     4.16600000
   H     15.62000000    26.28000000     5.79600000
   N     17.61000000    29.49000000     6.86600000
   C     18.12000000    30.04000000     8.10600000
   C     19.12000000    29.09000000     8.75600000
   O     18.98000000    28.79000000     9.93600000
   H     18.06000000    29.76000000     6.00600000
   H     17.35000000    30.16000000     8.86600000
   H     18.45000000    31.06000000     7.92600000
   N     19.97000000    28.49000000     7.91600000
   C     20.98000000    27.51000000     8.24600000
   C     22.43000000    27.97000000     8.13600000
   O     23.27000000    27.22000000     8.61600000
   C     20.72000000    26.19000000     7.53600000
   C     21.34000000    26.08000000     6.15600000
   N     22.04000000    24.99000000     5.83600000
   O     21.44000000    27.02000000     5.36600000
   H     20.15000000    29.02000000     7.07600000
   H     20.84000000    27.31000000     9.30600000
   H     19.63000000    26.08000000     7.47600000
   H     21.29000000    25.40000000     8.02600000
   H     22.13000000    24.31000000     6.57600000
   H     22.69000000    24.97000000     5.05600000
   N     22.66000000    29.19000000     7.64600000
   C     23.97000000    29.82000000     7.70600000
   C     24.73000000    29.67000000     6.39600000
   O     25.84000000    30.18000000     6.31600000
   H     21.90000000    29.72000000     7.26600000
   H     24.60000000    29.34000000     8.45600000
   H     23.86000000    30.89000000     7.89600000
   N     24.09000000    29.16000000     5.34600000
   C     24.62000000    28.78000000     4.05600000
   C     23.64000000    29.15000000     2.94600000
   O     22.43000000    29.02000000     3.11600000
   C     24.83000000    27.27000000     4.03600000
   C     25.97000000    26.82000000     4.91600000
   C     27.25000000    27.07000000     4.41600000
   C     25.75000000    26.20000000     6.15600000
   C     28.37000000    26.88000000     5.23600000
   C     26.85000000    26.09000000     7.01600000
   C     28.14000000    26.38000000     6.52600000
   O     29.25000000    26.13000000     7.27600000
   H     23.18000000    28.74000000     5.52600000
   H     25.52000000    29.34000000     3.83600000
   H     25.08000000    26.91000000     3.03600000
   H     23.90000000    26.73000000     4.24600000
   H     27.39000000    27.65000000     3.51600000
   H     24.75000000    25.91000000     6.46600000
   H     29.39000000    27.02000000     4.92600000
   H     26.77000000    25.82000000     8.05600000
   H     30.04000000    25.97000000     6.75600000
   N     24.15000000    29.64000000     1.80600000
   C     23.41000000    29.92000000     0.59600000
   C     23.93000000    28.99000000    -0.48400000
   O     25.12000000    28.73000000    -0.62400000
   C     23.53000000    31.38000000     0.16600000
   C     23.17000000    32.42000000     1.21600000
   C     22.76000000    31.64000000    -1.12400000
   C     24.18000000    32.91000000     2.25600000
   H     25.14000000    29.80000000     1.78600000
   H     22.34000000    29.78000000     0.73600000
   H     24.57000000    31.66000000    -0.04400000
   H     22.28000000    32.11000000     1.76600000
   H     22.87000000    33.36000000     0.74600000
   H     22.86000000    32.70000000    -1.35400000
   H     23.31000000    31.08000000    -1.88400000
   H     21.71000000    31.36000000    -1.02400000
   H     24.25000000    32.00000000     2.86600000
   H     25.14000000    33.04000000     1.76600000
   H     23.76000000    33.70000000     2.88600000
   N     22.96000000    28.55000000    -1.29400000
   C     23.22000000    27.61000000    -2.37400000
   C     22.55000000    28.14000000    -3.64400000
   O     21.57000000    28.86000000    -3.51400000
   C     22.75000000    26.19000000    -2.07400000
   O     23.10000000    25.84000000    -0.75400000
   H     22.03000000    28.94000000    -1.27400000
   H     24.29000000    27.44000000    -2.43400000
   H     23.13000000    25.48000000    -2.80400000
   H     21.66000000    26.22000000    -2.09400000
   H     24.04000000    25.94000000    -0.61400000
   N     23.10000000    27.86000000    -4.82400000
   C     22.73000000    28.54000000    -6.05400000
   C     21.27000000    28.44000000    -6.45400000
   O     20.67000000    29.47000000    -6.75400000
   C     23.66000000    28.04000000    -7.15400000
   H     23.90000000    27.24000000    -4.86400000
   H     22.96000000    29.60000000    -5.95400000
   H     23.47000000    26.97000000    -7.29400000
   H     23.48000000    28.60000000    -8.07400000
   H     24.72000000    28.12000000    -6.88400000
   N     20.52000000    27.36000000    -6.22400000
   C     19.07000000    27.35000000    -6.16400000
   C     18.36000000    28.36000000    -5.28400000
   O     17.34000000    28.94000000    -5.66400000
   C     18.73000000    25.95000000    -5.65400000
   H     20.98000000    26.48000000    -6.00400000
   H     18.77000000    27.50000000    -7.20400000
   H     17.65000000    25.93000000    -5.45400000
   H     18.94000000    25.16000000    -6.37400000
   H     19.27000000    25.74000000    -4.73400000
   N     18.85000000    28.62000000    -4.07400000
   C     18.39000000    29.66000000    -3.18400000
   C     18.84000000    31.06000000    -3.57400000
   O     18.08000000    32.00000000    -3.38400000
   C     18.84000000    29.44000000    -1.74400000
   C     18.60000000    28.05000000    -1.15400000
   C     19.29000000    27.91000000     0.19600000
   O     19.34000000    28.87000000     0.99600000
   O     19.82000000    26.81000000     0.44600000
   H     19.72000000    28.17000000    -3.81400000
   H     17.30000000    29.59000000    -3.18400000
   H     18.44000000    30.18000000    -1.04400000
   H     19.90000000    29.65000000    -1.56400000
   H     19.16000000    27.42000000    -1.84400000
   H     17.52000000    27.91000000    -1.16400000
   N     20.03000000    31.20000000    -4.17400000
   C     20.45000000    32.44000000    -4.78400000
   H     21.44500000    32.31600000    -5.21100000
   H     19.74900000    32.71300000    -5.57300000
   H     20.47400000    33.22700000    -4.03000000
   H     20.60000000    30.37000000    -4.11400000
  Ca     20.29000000    27.52000000     3.07000000
   O     22.44000000    26.36000000     1.91000000
   H     22.76000000    25.60000000     2.39000000
   H     22.66000000    26.17000000     1.00000000

Ca 1.70



