%chk=CaMKII_loop3_52.0.chk
%nprocshared=48
%mem=10GB
%nosave
#b3lyp/svp scf=(tight,noincore) Test 
#IOP(5/87=12) Density=Current Pop=(MK,readradii) iop(6/33=2) iop(6/42=6)

CaMKII_loop3_52.0 

   0   1
   C     77.84000000    58.61000000    20.21000000
   C     77.87000000    57.23000000    19.57000000
   O     78.91000000    56.71000000    19.18000000
   H     76.85700000    59.05700000    20.06300000
   H     78.04200000    58.52100000    21.27700000
   H     78.59800000    59.24200000    19.74800000
   N     76.73000000    56.55000000    19.35000000
   C     76.62000000    55.23000000    18.78000000
   C     76.63000000    55.37000000    17.27000000
   O     75.68000000    55.94000000    16.72000000
   C     75.39000000    54.48000000    19.29000000
   C     75.22000000    53.05000000    18.78000000
   O     74.21000000    52.41000000    19.13000000
   O     75.95000000    52.51000000    17.92000000
   H     75.89000000    56.95000000    19.73000000
   H     77.46000000    54.62000000    19.12000000
   H     74.57000000    55.11000000    18.95000000
   H     75.38000000    54.44000000    20.38000000
   N     77.71000000    54.99000000    16.58000000
   C     77.92000000    55.25000000    15.17000000
   C     77.12000000    54.21000000    14.40000000
   O     76.23000000    54.59000000    13.64000000
   C     79.39000000    55.05000000    14.85000000
   C     79.76000000    55.41000000    13.42000000
   C     81.29000000    55.43000000    13.32000000
   C     81.84000000    56.13000000    12.08000000
   N     83.29000000    55.98000000    12.19000000
   H     78.40000000    54.46000000    17.09000000
   H     77.58000000    56.23000000    14.82000000
   H     79.68000000    54.01000000    15.00000000
   H     79.96000000    55.62000000    15.60000000
   H     79.38000000    56.38000000    13.10000000
   H     79.35000000    54.55000000    12.88000000
   H     81.72000000    54.45000000    13.50000000
   H     81.61000000    56.05000000    14.16000000
   H     81.59000000    57.19000000    11.98000000
   H     81.50000000    55.62000000    11.18000000
   H     83.49000000    55.00000000    12.09000000
   H     83.74000000    56.41000000    11.39000000
   H     83.61000000    56.27000000    13.11000000
   N     77.19000000    52.92000000    14.74000000
   C     76.42000000    51.91000000    14.03000000
   C     74.93000000    51.90000000    14.33000000
   O     74.21000000    51.55000000    13.40000000
   C     76.87000000    50.49000000    14.36000000
   C     77.25000000    50.29000000    15.82000000
   O     76.41000000    49.67000000    16.51000000
   O     78.28000000    50.82000000    16.28000000
   H     77.88000000    52.58000000    15.39000000
   H     76.49000000    52.08000000    12.95000000
   H     77.79000000    50.35000000    13.79000000
   H     76.15000000    49.80000000    13.93000000
   N     74.51000000    52.38000000    15.50000000
   C     73.12000000    52.45000000    15.92000000
   C     72.52000000    51.12000000    16.38000000
   O     71.76000000    50.52000000    15.63000000
   H     75.20000000    52.43000000    16.23000000
   H     72.50000000    52.81000000    15.10000000
   H     73.00000000    53.18000000    16.72000000
   N     73.15000000    50.50000000    17.38000000
   C     72.70000000    49.29000000    18.03000000
   C     72.31000000    49.38000000    19.50000000
   O     71.77000000    48.40000000    20.01000000
   C     73.73000000    48.18000000    17.80000000
   C     74.92000000    48.23000000    18.75000000
   N     75.40000000    47.03000000    19.09000000
   O     75.36000000    49.25000000    19.27000000
   H     73.90000000    50.95000000    17.88000000
   H     71.81000000    48.99000000    17.47000000
   H     74.11000000    48.12000000    16.78000000
   H     73.35000000    47.19000000    18.02000000
   H     74.99000000    46.19000000    18.71000000
   H     76.20000000    46.93000000    19.70000000
   N     72.45000000    50.53000000    20.16000000
   C     71.99000000    50.66000000    21.52000000
   C     73.11000000    50.74000000    22.55000000
   O     72.86000000    50.79000000    23.75000000
   H     72.89000000    51.28000000    19.65000000
   H     71.27000000    49.88000000    21.79000000
   H     71.42000000    51.59000000    21.57000000
   N     74.36000000    50.70000000    22.09000000
   C     75.58000000    50.64000000    22.86000000
   C     76.67000000    51.47000000    22.21000000
   O     76.64000000    51.72000000    21.00000000
   C     76.04000000    49.20000000    23.09000000
   C     75.04000000    48.28000000    23.75000000
   C     74.98000000    48.10000000    25.14000000
   C     74.20000000    47.54000000    22.90000000
   C     74.19000000    47.08000000    25.67000000
   C     73.43000000    46.49000000    23.42000000
   C     73.41000000    46.29000000    24.81000000
   O     72.63000000    45.34000000    25.40000000
   H     74.53000000    50.55000000    21.10000000
   H     75.31000000    51.11000000    23.81000000
   H     76.95000000    49.24000000    23.69000000
   H     76.13000000    48.84000000    22.07000000
   H     75.67000000    48.70000000    25.72000000
   H     74.15000000    47.72000000    21.84000000
   H     74.11000000    46.94000000    26.74000000
   H     72.80000000    45.89000000    22.78000000
   H     72.19000000    44.81000000    24.74000000
   N     77.70000000    51.85000000    22.97000000
   C     78.83000000    52.64000000    22.50000000
   C     80.05000000    51.80000000    22.86000000
   O     80.31000000    51.30000000    23.95000000
   C     78.85000000    54.05000000    23.09000000
   C     77.66000000    54.90000000    22.67000000
   C     80.17000000    54.79000000    22.91000000
   C     77.45000000    55.96000000    23.75000000
   H     77.65000000    51.70000000    23.96000000
   H     78.68000000    52.79000000    21.43000000
   H     78.71000000    53.86000000    24.15000000
   H     76.76000000    54.29000000    22.57000000
   H     77.82000000    55.36000000    21.70000000
   H     80.21000000    55.73000000    23.44000000
   H     80.95000000    54.17000000    23.36000000
   H     80.27000000    54.91000000    21.83000000
   H     78.29000000    56.64000000    23.89000000
   H     76.54000000    56.46000000    23.41000000
   H     77.21000000    55.47000000    24.69000000
   N     81.02000000    51.74000000    21.95000000
   C     82.32000000    51.11000000    22.08000000
   C     83.49000000    52.00000000    21.65000000
   O     83.21000000    53.10000000    21.19000000
   C     82.30000000    49.76000000    21.36000000
   O     82.36000000    49.82000000    19.95000000
   H     80.87000000    52.09000000    21.02000000
   H     82.43000000    50.96000000    23.15000000
   H     81.37000000    49.25000000    21.58000000
   H     83.13000000    49.11000000    21.60000000
   H     81.58000000    50.30000000    19.66000000
   N     84.71000000    51.56000000    21.95000000
   C     85.82000000    52.50000000    21.93000000
   C     86.15000000    53.09000000    20.57000000
   O     86.47000000    54.26000000    20.43000000
   C     87.00000000    51.82000000    22.62000000
   H     84.80000000    50.70000000    22.47000000
   H     85.52000000    53.40000000    22.47000000
   H     87.82000000    52.52000000    22.47000000
   H     86.82000000    51.83000000    23.69000000
   H     87.14000000    50.81000000    22.23000000
   N     85.90000000    52.38000000    19.46000000
   C     85.99000000    52.94000000    18.13000000
   C     85.05000000    54.11000000    17.87000000
   O     85.41000000    55.08000000    17.22000000
   C     85.90000000    51.80000000    17.12000000
   H     85.78000000    51.38000000    19.59000000
   H     87.01000000    53.34000000    18.06000000
   H     84.87000000    51.43000000    17.07000000
   H     86.18000000    52.15000000    16.13000000
   H     86.65000000    51.05000000    17.35000000
   N     83.83000000    53.99000000    18.38000000
   C     82.76000000    54.94000000    18.12000000
   C     82.93000000    56.22000000    18.93000000
   O     82.89000000    57.29000000    18.34000000
   C     81.36000000    54.40000000    18.38000000
   C     81.09000000    53.02000000    17.77000000
   C     79.99000000    52.33000000    18.55000000
   O     80.16000000    51.19000000    19.05000000
   O     78.88000000    52.90000000    18.72000000
   H     83.64000000    53.22000000    19.01000000
   H     82.82000000    55.20000000    17.06000000
   H     80.57000000    55.11000000    18.14000000
   H     81.29000000    54.26000000    19.46000000
   H     82.00000000    52.42000000    17.77000000
   H     80.71000000    53.10000000    16.76000000
   N     83.44000000    56.12000000    20.16000000
   C     83.85000000    57.27000000    20.93000000
   H     84.75000000    57.69900000    20.49000000
   H     83.05300000    58.01400000    20.92500000
   H     84.05800000    56.96600000    21.95600000
   H     83.51000000    55.20000000    20.57000000
  Ca     77.50000000    50.62000000    18.75000000
   O     78.45000000    48.18000000    18.14000000
   H     79.19000000    47.78000000    18.59000000
   H     78.13000000    47.51000000    17.53000000

Ca 1.70



