%chk=CaMKII_loop3_31.0.chk
%nprocshared=48
%mem=10GB
%nosave
#b3lyp/svp scf=(tight,noincore) Test 
#IOP(5/87=12) Density=Current Pop=(MK,readradii) iop(6/33=2) iop(6/42=6)

CaMKII_loop3_31.0 

   0   1
   C     76.43000000    42.96000000    21.71000000
   C     75.23000000    42.09000000    22.06000000
   O     75.30000000    40.87000000    22.00000000
   H     77.27700000    42.32400000    21.45300000
   H     76.18300000    43.59600000    20.86000000
   H     76.69000000    43.58200000    22.56600000
   N     74.06000000    42.70000000    22.27000000
   C     72.80000000    42.12000000    22.69000000
   C     71.95000000    42.00000000    21.43000000
   O     71.08000000    42.78000000    21.06000000
   C     72.22000000    42.97000000    23.82000000
   C     70.80000000    42.60000000    24.20000000
   O     70.44000000    41.40000000    24.22000000
   O     70.00000000    43.50000000    24.52000000
   H     74.07000000    43.71000000    22.21000000
   H     72.88000000    41.09000000    23.04000000
   H     72.26000000    44.02000000    23.52000000
   H     72.76000000    42.86000000    24.76000000
   N     72.10000000    40.86000000    20.76000000
   C     71.45000000    40.38000000    19.55000000
   C     69.99000000    40.02000000    19.72000000
   O     69.20000000    40.34000000    18.83000000
   C     72.19000000    39.19000000    18.94000000
   C     71.85000000    39.03000000    17.46000000
   C     72.68000000    37.97000000    16.75000000
   C     72.32000000    37.62000000    15.31000000
   N     73.08000000    36.47000000    14.79000000
   H     72.82000000    40.24000000    21.10000000
   H     71.36000000    41.18000000    18.81000000
   H     72.12000000    38.20000000    19.38000000
   H     73.23000000    39.48000000    18.98000000
   H     71.95000000    40.01000000    17.01000000
   H     70.81000000    38.73000000    17.31000000
   H     72.74000000    37.08000000    17.37000000
   H     73.67000000    38.39000000    16.61000000
   H     72.49000000    38.53000000    14.73000000
   H     71.27000000    37.32000000    15.26000000
   H     74.06000000    36.66000000    14.65000000
   H     72.93000000    35.69000000    15.42000000
   H     72.64000000    36.38000000    13.89000000
   N     69.53000000    39.39000000    20.81000000
   C     68.12000000    39.16000000    21.04000000
   C     67.32000000    40.37000000    21.49000000
   O     66.12000000    40.50000000    21.23000000
   C     67.99000000    38.10000000    22.13000000
   C     68.80000000    38.30000000    23.40000000
   O     68.24000000    38.63000000    24.47000000
   O     70.04000000    38.36000000    23.25000000
   H     70.20000000    39.10000000    21.51000000
   H     67.61000000    38.73000000    20.18000000
   H     68.36000000    37.16000000    21.70000000
   H     66.93000000    37.98000000    22.34000000
   N     68.02000000    41.26000000    22.19000000
   C     67.63000000    42.64000000    22.38000000
   C     66.96000000    42.96000000    23.71000000
   O     66.14000000    43.87000000    23.74000000
   H     68.94000000    41.00000000    22.53000000
   H     66.90000000    42.93000000    21.63000000
   H     68.55000000    43.22000000    22.29000000
   N     67.12000000    42.18000000    24.79000000
   C     66.42000000    42.33000000    26.05000000
   C     66.92000000    43.54000000    26.82000000
   O     66.17000000    43.89000000    27.72000000
   C     66.41000000    41.02000000    26.82000000
   C     67.74000000    40.33000000    27.12000000
   N     67.74000000    39.25000000    27.90000000
   O     68.85000000    40.76000000    26.79000000
   H     67.80000000    41.44000000    24.72000000
   H     65.39000000    42.63000000    25.83000000
   H     65.86000000    40.25000000    26.28000000
   H     65.85000000    41.19000000    27.74000000
   H     66.87000000    38.79000000    28.12000000
   H     68.60000000    38.94000000    28.32000000
   N     68.14000000    44.05000000    26.59000000
   C     68.76000000    45.12000000    27.35000000
   C     70.05000000    44.78000000    28.08000000
   O     70.60000000    45.47000000    28.94000000
   H     68.67000000    43.69000000    25.81000000
   H     68.08000000    45.55000000    28.08000000
   H     69.12000000    45.83000000    26.60000000
   N     70.48000000    43.53000000    27.85000000
   C     71.43000000    42.81000000    28.67000000
   C     72.35000000    41.90000000    27.86000000
   O     71.93000000    41.19000000    26.95000000
   C     70.73000000    42.01000000    29.77000000
   C     70.03000000    42.74000000    30.89000000
   C     70.53000000    42.90000000    32.19000000
   C     68.76000000    43.27000000    30.65000000
   C     69.91000000    43.63000000    33.21000000
   C     68.10000000    44.01000000    31.64000000
   C     68.65000000    44.19000000    32.93000000
   O     68.02000000    44.87000000    33.93000000
   H     69.99000000    42.95000000    27.18000000
   H     72.09000000    43.50000000    29.18000000
   H     71.54000000    41.46000000    30.24000000
   H     69.99000000    41.31000000    29.39000000
   H     71.41000000    42.33000000    32.43000000
   H     68.28000000    43.04000000    29.70000000
   H     70.28000000    43.77000000    34.22000000
   H     67.12000000    44.40000000    31.40000000
   H     67.24000000    45.32000000    33.59000000
   N     73.66000000    41.96000000    28.12000000
   C     74.69000000    41.17000000    27.49000000
   C     75.06000000    39.98000000    28.37000000
   O     75.26000000    40.14000000    29.57000000
   C     75.86000000    42.08000000    27.12000000
   C     75.54000000    43.32000000    26.27000000
   C     76.99000000    41.37000000    26.39000000
   C     76.57000000    44.44000000    26.15000000
   H     73.93000000    42.64000000    28.81000000
   H     74.35000000    40.87000000    26.50000000
   H     76.20000000    42.53000000    28.05000000
   H     74.60000000    43.77000000    26.57000000
   H     75.27000000    42.92000000    25.30000000
   H     77.40000000    40.55000000    26.98000000
   H     76.61000000    41.00000000    25.44000000
   H     77.81000000    42.06000000    26.19000000
   H     76.82000000    44.80000000    27.15000000
   H     77.44000000    44.06000000    25.62000000
   H     76.06000000    45.24000000    25.60000000
   N     75.28000000    38.84000000    27.71000000
   C     76.00000000    37.75000000    28.33000000
   C     77.32000000    37.42000000    27.64000000
   O     77.60000000    37.93000000    26.56000000
   C     74.97000000    36.62000000    28.42000000
   O     74.53000000    36.23000000    27.14000000
   H     74.96000000    38.70000000    26.76000000
   H     76.15000000    37.96000000    29.39000000
   H     74.05000000    36.95000000    28.89000000
   H     75.32000000    35.70000000    28.89000000
   H     74.05000000    36.93000000    26.68000000
   N     78.15000000    36.60000000    28.28000000
   C     79.43000000    36.23000000    27.69000000
   C     79.34000000    35.53000000    26.34000000
   O     80.23000000    35.67000000    25.51000000
   C     80.17000000    35.33000000    28.68000000
   H     77.81000000    36.26000000    29.17000000
   H     80.04000000    37.12000000    27.56000000
   H     80.14000000    35.88000000    29.62000000
   H     79.72000000    34.33000000    28.70000000
   H     81.23000000    35.30000000    28.43000000
   N     78.27000000    34.79000000    26.06000000
   C     78.04000000    34.13000000    24.79000000
   C     77.80000000    35.10000000    23.64000000
   O     78.28000000    35.01000000    22.51000000
   C     76.90000000    33.13000000    24.84000000
   H     77.61000000    34.56000000    26.79000000
   H     78.95000000    33.58000000    24.56000000
   H     75.92000000    33.54000000    25.10000000
   H     76.73000000    32.81000000    23.81000000
   H     77.10000000    32.28000000    25.48000000
   N     77.20000000    36.26000000    23.94000000
   C     76.82000000    37.30000000    23.01000000
   C     77.97000000    38.26000000    22.72000000
   O     78.12000000    38.62000000    21.56000000
   C     75.62000000    38.09000000    23.52000000
   C     74.46000000    37.23000000    24.00000000
   C     73.42000000    38.12000000    24.66000000
   O     73.31000000    38.24000000    25.90000000
   O     72.67000000    38.83000000    23.95000000
   H     76.90000000    36.39000000    24.90000000
   H     76.52000000    36.80000000    22.08000000
   H     75.13000000    38.56000000    22.66000000
   H     75.81000000    38.94000000    24.18000000
   H     74.79000000    36.50000000    24.73000000
   H     74.21000000    36.62000000    23.12000000
   N     78.75000000    38.55000000    23.76000000
   C     79.98000000    39.31000000    23.66000000
   H     80.76300000    38.67900000    23.24000000
   H     79.82300000    40.17300000    23.01300000
   H     80.28000000    39.64900000    24.65200000
   H     78.54000000    38.29000000    24.72000000
  Ca     70.64000000    39.28000000    25.55000000
   O     70.58000000    38.55000000    28.13000000
   H     70.42000000    39.03000000    28.94000000
   H     71.22000000    37.88000000    28.37000000

Ca 1.70



