%chk=CaMKII_loop3_58.0.chk
%nprocshared=48
%mem=10GB
%nosave
#b3lyp/svp scf=(tight,noincore) Test 
#IOP(5/87=12) Density=Current Pop=(MK,readradii) iop(6/33=2) iop(6/42=6)

CaMKII_loop3_58.0 

   0   1
   C     82.30600000    66.86000000    36.09000000
   C     82.10600000    66.68000000    37.59000000
   O     82.31600000    65.62000000    38.17000000
   H     83.36000000    66.72800000    35.84600000
   H     81.71400000    66.11900000    35.55200000
   H     81.98900000    67.86100000    35.79800000
   N     81.40600000    67.61000000    38.24000000
   C     80.82600000    67.58000000    39.56000000
   C     79.49600000    66.85000000    39.55000000
   O     78.56600000    67.22000000    38.83000000
   C     80.66600000    69.03000000    40.02000000
   C     79.77600000    69.10000000    41.26000000
   O     79.95600000    68.22000000    42.12000000
   O     79.01600000    70.08000000    41.43000000
   H     80.93600000    68.27000000    37.64000000
   H     81.44600000    67.11000000    40.32000000
   H     80.14600000    69.56000000    39.22000000
   H     81.63600000    69.50000000    40.19000000
   N     79.37600000    65.76000000    40.31000000
   C     78.40600000    64.72000000    40.03000000
   C     77.05600000    65.03000000    40.66000000
   O     76.03600000    64.66000000    40.08000000
   C     78.89600000    63.33000000    40.42000000
   C     78.27600000    62.29000000    39.49000000
   C     78.82600000    60.88000000    39.65000000
   C     78.69600000    60.32000000    41.07000000
   N     78.83600000    58.86000000    41.10000000
   H     79.93600000    65.70000000    41.15000000
   H     78.30600000    64.57000000    38.95000000
   H     78.69600000    63.12000000    41.47000000
   H     79.97600000    63.33000000    40.27000000
   H     78.51600000    62.55000000    38.46000000
   H     77.20600000    62.32000000    39.69000000
   H     79.86600000    60.81000000    39.32000000
   H     78.21600000    60.31000000    38.95000000
   H     77.67600000    60.59000000    41.35000000
   H     79.47600000    60.80000000    41.65000000
   H     78.44600000    58.54000000    41.97000000
   H     78.42600000    58.33000000    40.35000000
   H     79.80600000    58.56000000    41.15000000
   N     77.00600000    65.75000000    41.78000000
   C     75.78600000    65.95000000    42.52000000
   C     75.34600000    67.41000000    42.46000000
   O     74.34600000    67.68000000    43.12000000
   C     75.98600000    65.44000000    43.95000000
   C     77.22600000    65.90000000    44.70000000
   O     77.96600000    66.79000000    44.24000000
   O     77.33600000    65.42000000    45.85000000
   H     77.84600000    66.13000000    42.20000000
   H     74.89600000    65.44000000    42.15000000
   H     75.91600000    64.35000000    43.98000000
   H     75.11600000    65.67000000    44.56000000
   N     75.97600000    68.33000000    41.72000000
   C     75.51600000    69.68000000    41.50000000
   C     75.59600000    70.60000000    42.71000000
   O     74.68600000    71.41000000    42.87000000
   H     76.84600000    67.99000000    41.34000000
   H     74.47600000    69.73000000    41.17000000
   H     76.11600000    70.19000000    40.74000000
   N     76.62600000    70.27000000    43.49000000
   C     76.87600000    71.01000000    44.71000000
   C     77.79600000    72.18000000    44.42000000
   O     77.68600000    73.17000000    45.14000000
   C     77.40600000    70.17000000    45.87000000
   C     78.91600000    70.28000000    46.06000000
   N     79.43600000    71.27000000    46.80000000
   O     79.65600000    69.52000000    45.44000000
   H     77.36600000    69.69000000    43.12000000
   H     75.93600000    71.44000000    45.04000000
   H     77.11600000    69.14000000    45.65000000
   H     76.92600000    70.52000000    46.78000000
   H     78.93600000    72.12000000    47.00000000
   H     80.43600000    71.28000000    46.93000000
   N     78.58600000    72.15000000    43.34000000
   C     79.50600000    73.22000000    43.02000000
   C     80.98600000    72.90000000    43.04000000
   O     81.79600000    73.79000000    42.79000000
   H     78.63600000    71.37000000    42.70000000
   H     79.35600000    74.11000000    43.64000000
   H     79.33600000    73.54000000    41.99000000
   N     81.38600000    71.67000000    43.38000000
   C     82.76600000    71.26000000    43.49000000
   C     83.07600000    69.78000000    43.29000000
   O     82.38600000    68.87000000    43.72000000
   C     83.38600000    71.64000000    44.83000000
   C     82.73600000    72.47000000    45.91000000
   C     82.42600000    73.83000000    45.81000000
   C     82.57600000    71.84000000    47.15000000
   C     81.90600000    74.46000000    46.94000000
   C     82.14600000    72.46000000    48.33000000
   C     81.82600000    73.83000000    48.20000000
   O     81.58600000    74.53000000    49.34000000
   H     80.60600000    71.03000000    43.51000000
   H     83.30600000    71.87000000    42.77000000
   H     84.34600000    72.12000000    44.66000000
   H     83.59600000    70.70000000    45.35000000
   H     82.51600000    74.33000000    44.86000000
   H     82.86600000    70.80000000    47.22000000
   H     81.77600000    75.53000000    47.03000000
   H     82.15600000    71.94000000    49.27000000
   H     81.36600000    73.87000000    50.01000000
   N     84.08600000    69.62000000    42.42000000
   C     84.39600000    68.27000000    41.98000000
   C     85.35600000    67.67000000    43.00000000
   O     86.31600000    68.39000000    43.28000000
   C     85.17600000    68.22000000    40.67000000
   C     84.75600000    69.18000000    39.56000000
   C     85.00600000    66.80000000    40.13000000
   C     85.76600000    69.24000000    38.42000000
   H     84.61600000    70.38000000    42.03000000
   H     83.47600000    67.69000000    41.90000000
   H     86.22600000    68.47000000    40.81000000
   H     84.52600000    70.20000000    39.86000000
   H     83.77600000    68.92000000    39.16000000
   H     85.47600000    66.58000000    39.17000000
   H     85.61600000    66.03000000    40.61000000
   H     83.95600000    66.53000000    40.04000000
   H     85.28600000    69.67000000    37.54000000
   H     86.49600000    69.99000000    38.73000000
   H     86.31600000    68.35000000    38.11000000
   N     85.05600000    66.46000000    43.48000000
   C     85.90600000    65.64000000    44.31000000
   C     86.66600000    64.61000000    43.48000000
   O     86.23600000    64.37000000    42.35000000
   C     85.11600000    65.08000000    45.49000000
   O     84.24600000    64.04000000    45.11000000
   H     84.18600000    66.09000000    43.11000000
   H     86.66600000    66.24000000    44.82000000
   H     84.63600000    65.92000000    46.00000000
   H     85.83600000    64.60000000    46.15000000
   H     83.44600000    64.49000000    44.82000000
   N     87.79600000    64.12000000    43.99000000
   C     88.58600000    63.26000000    43.13000000
   C     87.97600000    61.93000000    42.70000000
   O     88.39600000    61.45000000    41.65000000
   C     89.93600000    63.03000000    43.79000000
   H     88.09600000    64.41000000    44.91000000
   H     88.80600000    63.70000000    42.16000000
   H     90.65600000    63.02000000    42.98000000
   H     90.25600000    63.96000000    44.26000000
   H     89.86600000    62.21000000    44.51000000
   N     86.98600000    61.40000000    43.41000000
   C     86.16600000    60.24000000    43.10000000
   C     85.26600000    60.56000000    41.93000000
   O     85.02600000    59.73000000    41.06000000
   C     85.38600000    59.82000000    44.34000000
   H     86.88600000    61.77000000    44.34000000
   H     86.89600000    59.50000000    42.76000000
   H     84.75600000    60.62000000    44.72000000
   H     84.83600000    58.93000000    44.01000000
   H     86.18600000    59.57000000    45.03000000
   N     84.66600000    61.76000000    41.91000000
   C     83.77600000    62.37000000    40.95000000
   C     84.50600000    62.77000000    39.68000000
   O     84.08600000    62.40000000    38.58000000
   C     83.10600000    63.61000000    41.53000000
   C     82.02600000    63.32000000    42.57000000
   C     81.51600000    64.61000000    43.19000000
   O     82.30600000    65.34000000    43.82000000
   O     80.31600000    64.93000000    43.02000000
   H     84.83600000    62.39000000    42.69000000
   H     83.05600000    61.64000000    40.57000000
   H     82.80600000    64.37000000    40.80000000
   H     83.87600000    64.01000000    42.19000000
   H     82.58600000    62.78000000    43.33000000
   H     81.16600000    62.82000000    42.12000000
   N     85.72600000    63.31000000    39.76000000
   C     86.59600000    63.54000000    38.63000000
   H     87.56400000    63.07400000    38.81700000
   H     86.15100000    63.10600000    37.73400000
   H     86.73100000    64.61200000    38.48700000
   H     85.95600000    63.70000000    40.67000000
  Ca     80.48000000    67.17000000    44.45000000
   O     80.32000000    65.14000000    46.08000000
   H     79.37000000    65.08000000    46.19000000
   H     80.67000000    64.48000000    46.67000000

Ca 1.70



