%chk=CaMKII_loop3_37.0.chk
%nprocshared=48
%mem=10GB
%nosave
#b3lyp/svp scf=(tight,noincore) Test 
#IOP(5/87=12) Density=Current Pop=(MK,readradii) iop(6/33=2) iop(6/42=6)

CaMKII_loop3_37.0 

   0   1
   C     65.74000000    46.68000000    24.61000000
   C     64.60000000    45.71000000    24.90000000
   O     64.83000000    44.56000000    25.27000000
   H     66.61300000    46.12300000    24.27000000
   H     65.43300000    47.38100000    23.83400000
   H     65.99100000    47.22900000    25.51800000
   N     63.36000000    46.18000000    25.00000000
   C     62.12000000    45.50000000    25.31000000
   C     61.85000000    44.43000000    24.27000000
   O     61.64000000    44.70000000    23.09000000
   C     60.95000000    46.47000000    25.52000000
   C     59.63000000    45.81000000    25.89000000
   O     59.66000000    44.63000000    26.28000000
   O     58.57000000    46.47000000    25.81000000
   H     63.22000000    47.10000000    24.61000000
   H     62.20000000    45.01000000    26.28000000
   H     60.73000000    46.96000000    24.57000000
   H     61.25000000    47.26000000    26.20000000
   N     61.93000000    43.16000000    24.69000000
   C     62.05000000    41.92000000    23.95000000
   C     60.68000000    41.33000000    23.65000000
   O     60.56000000    40.37000000    22.90000000
   C     62.93000000    40.92000000    24.70000000
   C     63.66000000    39.94000000    23.79000000
   C     64.79000000    39.22000000    24.53000000
   C     65.48000000    38.29000000    23.54000000
   N     66.34000000    37.32000000    24.24000000
   H     62.09000000    43.08000000    25.68000000
   H     62.54000000    42.22000000    23.02000000
   H     62.34000000    40.40000000    25.45000000
   H     63.66000000    41.48000000    25.28000000
   H     64.18000000    40.50000000    23.01000000
   H     62.96000000    39.24000000    23.35000000
   H     64.38000000    38.59000000    25.32000000
   H     65.59000000    39.81000000    24.98000000
   H     66.04000000    38.97000000    22.88000000
   H     64.69000000    37.79000000    22.99000000
   H     66.31000000    36.43000000    23.76000000
   H     67.31000000    37.61000000    24.28000000
   H     66.05000000    37.07000000    25.17000000
   N     59.58000000    41.80000000    24.25000000
   C     58.23000000    41.32000000    24.10000000
   C     57.22000000    42.45000000    23.92000000
   O     56.02000000    42.26000000    23.76000000
   C     57.76000000    40.37000000    25.20000000
   C     57.72000000    40.87000000    26.64000000
   O     57.35000000    40.09000000    27.54000000
   O     58.05000000    42.06000000    26.87000000
   H     59.66000000    42.54000000    24.94000000
   H     58.11000000    40.84000000    23.13000000
   H     58.49000000    39.56000000    25.16000000
   H     56.81000000    39.91000000    24.96000000
   N     57.66000000    43.70000000    24.10000000
   C     56.94000000    44.93000000    23.85000000
   C     55.90000000    45.36000000    24.87000000
   O     54.94000000    46.10000000    24.63000000
   H     58.55000000    43.86000000    24.56000000
   H     56.48000000    44.80000000    22.87000000
   H     57.59000000    45.80000000    23.80000000
   N     56.12000000    44.83000000    26.08000000
   C     55.25000000    45.14000000    27.20000000
   C     55.37000000    46.54000000    27.78000000
   O     54.57000000    46.95000000    28.62000000
   C     55.42000000    43.95000000    28.15000000
   C     56.49000000    44.14000000    29.21000000
   N     56.26000000    43.86000000    30.50000000
   O     57.58000000    44.64000000    28.94000000
   H     56.98000000    44.34000000    26.24000000
   H     54.25000000    45.08000000    26.77000000
   H     55.38000000    42.97000000    27.69000000
   H     54.48000000    44.07000000    28.69000000
   H     55.46000000    43.27000000    30.66000000
   H     56.88000000    44.24000000    31.20000000
   N     56.34000000    47.34000000    27.34000000
   C     56.64000000    48.67000000    27.82000000
   C     57.57000000    48.73000000    29.03000000
   O     57.56000000    49.72000000    29.75000000
   H     57.01000000    47.01000000    26.66000000
   H     55.71000000    49.18000000    28.05000000
   H     57.08000000    49.22000000    26.99000000
   N     58.26000000    47.61000000    29.31000000
   C     59.23000000    47.50000000    30.37000000
   C     60.47000000    46.68000000    30.04000000
   O     60.43000000    45.69000000    29.31000000
   C     58.56000000    46.96000000    31.62000000
   C     57.39000000    47.79000000    32.11000000
   C     57.56000000    48.68000000    33.17000000
   C     56.11000000    47.61000000    31.59000000
   C     56.44000000    49.32000000    33.74000000
   C     54.98000000    48.25000000    32.12000000
   C     55.15000000    49.11000000    33.22000000
   O     54.09000000    49.72000000    33.84000000
   H     58.21000000    46.91000000    28.58000000
   H     59.51000000    48.55000000    30.53000000
   H     59.22000000    47.02000000    32.49000000
   H     58.28000000    45.91000000    31.55000000
   H     58.52000000    48.89000000    33.62000000
   H     55.94000000    46.87000000    30.81000000
   H     56.61000000    49.80000000    34.69000000
   H     54.03000000    47.95000000    31.69000000
   H     53.30000000    49.54000000    33.33000000
   N     61.57000000    47.02000000    30.71000000
   C     62.83000000    46.31000000    30.66000000
   C     63.16000000    45.71000000    32.02000000
   O     62.95000000    46.29000000    33.09000000
   C     63.93000000    47.17000000    30.05000000
   C     63.61000000    47.96000000    28.78000000
   C     65.25000000    46.40000000    29.96000000
   C     64.39000000    49.24000000    28.54000000
   H     61.58000000    47.81000000    31.33000000
   H     62.67000000    45.42000000    30.06000000
   H     64.09000000    47.96000000    30.79000000
   H     62.55000000    48.20000000    28.80000000
   H     63.81000000    47.34000000    27.91000000
   H     65.56000000    46.17000000    30.98000000
   H     65.19000000    45.49000000    29.37000000
   H     65.95000000    47.13000000    29.55000000
   H     64.22000000    49.92000000    29.38000000
   H     65.47000000    49.10000000    28.44000000
   H     63.92000000    49.65000000    27.65000000
   N     63.87000000    44.58000000    32.00000000
   C     64.24000000    43.67000000    33.06000000
   C     65.64000000    43.11000000    32.86000000
   O     66.12000000    43.17000000    31.73000000
   C     63.29000000    42.47000000    33.12000000
   O     63.38000000    41.79000000    31.89000000
   H     64.05000000    44.31000000    31.04000000
   H     64.24000000    44.10000000    34.07000000
   H     62.31000000    42.94000000    33.22000000
   H     63.47000000    41.83000000    33.98000000
   H     63.08000000    42.37000000    31.20000000
   N     66.25000000    42.49000000    33.88000000
   C     67.55000000    41.85000000    33.81000000
   C     67.82000000    40.99000000    32.59000000
   O     68.83000000    41.21000000    31.91000000
   C     67.86000000    41.19000000    35.15000000
   H     65.87000000    42.64000000    34.80000000
   H     68.26000000    42.67000000    33.71000000
   H     68.84000000    40.77000000    35.37000000
   H     67.64000000    41.81000000    36.02000000
   H     67.24000000    40.30000000    35.21000000
   N     67.03000000    39.95000000    32.30000000
   C     67.29000000    39.14000000    31.13000000
   C     67.34000000    39.92000000    29.82000000
   O     68.12000000    39.49000000    28.98000000
   C     66.20000000    38.08000000    31.13000000
   H     66.23000000    39.74000000    32.88000000
   H     68.17000000    38.51000000    31.28000000
   H     66.42000000    37.49000000    30.24000000
   H     66.16000000    37.56000000    32.08000000
   H     65.25000000    38.54000000    30.87000000
   N     66.49000000    40.93000000    29.61000000
   C     66.45000000    41.71000000    28.39000000
   C     67.71000000    42.56000000    28.30000000
   O     68.29000000    42.72000000    27.22000000
   C     65.20000000    42.57000000    28.29000000
   C     63.95000000    41.69000000    28.24000000
   C     62.73000000    42.59000000    28.35000000
   O     61.99000000    42.83000000    27.38000000
   O     62.41000000    42.91000000    29.52000000
   H     65.74000000    41.03000000    30.28000000
   H     66.39000000    41.06000000    27.52000000
   H     65.28000000    43.29000000    27.48000000
   H     65.15000000    43.20000000    29.17000000
   H     63.93000000    41.09000000    29.15000000
   H     63.97000000    41.14000000    27.30000000
   N     68.09000000    43.19000000    29.41000000
   C     69.28000000    44.02000000    29.41000000
   H     70.08700000    43.49700000    28.89700000
   H     69.07000000    44.95700000    28.89500000
   H     69.57800000    44.22800000    30.43700000
   H     67.54000000    43.17000000    30.25000000
  Ca     59.76000000    43.16000000    28.54000000
   O     59.89000000    43.27000000    31.23000000
   H     59.75000000    43.77000000    32.04000000
   H     60.13000000    42.39000000    31.53000000

Ca 1.70



