%chk=CaMKII_loop3_53.0.chk
%nprocshared=48
%mem=10GB
%nosave
#b3lyp/svp scf=(tight,noincore) Test 
#IOP(5/87=12) Density=Current Pop=(MK,readradii) iop(6/33=2) iop(6/42=6)

CaMKII_loop3_53.0 

   0   1
   C     80.71000000    64.93000000    35.91000000
   C     80.10000000    64.98000000    37.30000000
   O     80.10000000    63.95000000    37.97000000
   H     81.72700000    64.54300000    35.97400000
   H     80.11300000    64.27700000    35.27400000
   H     80.73000000    65.93400000    35.48500000
   N     79.64000000    66.15000000    37.74000000
   C     78.84000000    66.29000000    38.94000000
   C     77.51000000    65.55000000    38.82000000
   O     76.61000000    66.14000000    38.23000000
   C     78.84000000    67.76000000    39.33000000
   C     77.98000000    68.07000000    40.55000000
   O     77.90000000    67.25000000    41.49000000
   O     77.30000000    69.13000000    40.60000000
   H     79.83000000    66.99000000    37.21000000
   H     79.40000000    65.72000000    39.69000000
   H     78.52000000    68.34000000    38.46000000
   H     79.86000000    68.06000000    39.55000000
   N     77.37000000    64.30000000    39.25000000
   C     76.33000000    63.38000000    38.82000000
   C     75.00000000    63.67000000    39.52000000
   O     73.91000000    63.63000000    38.94000000
   C     76.84000000    61.94000000    38.86000000
   C     75.79000000    60.84000000    38.94000000
   C     76.53000000    59.51000000    38.78000000
   C     77.51000000    59.24000000    39.91000000
   N     78.40000000    58.11000000    39.60000000
   H     78.17000000    63.88000000    39.70000000
   H     76.09000000    63.61000000    37.78000000
   H     77.41000000    61.81000000    39.78000000
   H     77.63000000    61.71000000    38.14000000
   H     75.12000000    61.04000000    38.11000000
   H     75.32000000    60.86000000    39.92000000
   H     77.12000000    59.50000000    37.87000000
   H     75.75000000    58.77000000    38.61000000
   H     76.98000000    59.05000000    40.84000000
   H     78.10000000    60.10000000    40.26000000
   H     77.77000000    57.32000000    39.60000000
   H     78.81000000    58.31000000    38.70000000
   H     79.09000000    57.98000000    40.33000000
   N     75.09000000    63.98000000    40.81000000
   C     73.94000000    64.27000000    41.65000000
   C     73.47000000    65.72000000    41.54000000
   O     72.29000000    66.03000000    41.66000000
   C     74.24000000    63.89000000    43.09000000
   C     75.63000000    64.21000000    43.64000000
   O     76.43000000    65.00000000    43.09000000
   O     75.96000000    63.71000000    44.73000000
   H     76.02000000    63.90000000    41.20000000
   H     73.06000000    63.67000000    41.41000000
   H     74.11000000    62.81000000    43.14000000
   H     73.47000000    64.24000000    43.78000000
   N     74.43000000    66.62000000    41.30000000
   C     74.27000000    68.01000000    40.94000000
   C     74.59000000    68.99000000    42.07000000
   O     74.02000000    70.07000000    42.22000000
   H     75.34000000    66.19000000    41.16000000
   H     73.23000000    68.22000000    40.71000000
   H     74.89000000    68.22000000    40.07000000
   N     75.43000000    68.58000000    43.02000000
   C     75.71000000    69.34000000    44.22000000
   C     76.45000000    70.66000000    44.04000000
   O     76.34000000    71.57000000    44.87000000
   C     76.32000000    68.47000000    45.31000000
   C     77.84000000    68.54000000    45.25000000
   N     78.49000000    69.06000000    46.29000000
   O     78.36000000    68.27000000    44.17000000
   H     75.83000000    67.66000000    42.97000000
   H     74.71000000    69.57000000    44.60000000
   H     75.90000000    67.46000000    45.26000000
   H     76.05000000    68.80000000    46.31000000
   H     77.93000000    69.32000000    47.10000000
   H     79.43000000    69.41000000    46.18000000
   N     77.26000000    70.84000000    43.00000000
   C     78.16000000    71.96000000    42.82000000
   C     79.65000000    71.63000000    42.78000000
   O     80.54000000    72.46000000    42.63000000
   H     77.44000000    70.05000000    42.39000000
   H     77.91000000    72.67000000    43.61000000
   H     77.82000000    72.48000000    41.93000000
   N     80.03000000    70.36000000    42.96000000
   C     81.41000000    69.94000000    42.95000000
   C     81.50000000    68.61000000    42.21000000
   O     80.62000000    67.76000000    42.35000000
   C     82.18000000    70.06000000    44.27000000
   C     81.44000000    70.36000000    45.55000000
   C     81.07000000    71.70000000    45.77000000
   C     81.35000000    69.44000000    46.60000000
   C     80.76000000    72.22000000    47.03000000
   C     80.95000000    69.93000000    47.85000000
   C     80.66000000    71.29000000    48.08000000
   O     80.29000000    71.67000000    49.34000000
   H     79.36000000    69.63000000    43.15000000
   H     81.92000000    70.66000000    42.31000000
   H     82.94000000    70.83000000    44.16000000
   H     82.65000000    69.11000000    44.54000000
   H     81.16000000    72.38000000    44.93000000
   H     81.47000000    68.40000000    46.34000000
   H     80.62000000    73.27000000    47.25000000
   H     80.79000000    69.24000000    48.66000000
   H     80.40000000    70.90000000    49.90000000
   N     82.68000000    68.38000000    41.64000000
   C     83.15000000    67.11000000    41.13000000
   C     84.03000000    66.54000000    42.24000000
   O     85.03000000    67.15000000    42.62000000
   C     83.85000000    67.14000000    39.78000000
   C     82.91000000    67.92000000    38.86000000
   C     84.13000000    65.71000000    39.32000000
   C     83.50000000    68.32000000    37.51000000
   H     83.15000000    69.26000000    41.52000000
   H     82.29000000    66.44000000    41.15000000
   H     84.83000000    67.62000000    39.87000000
   H     82.39000000    68.81000000    39.20000000
   H     82.10000000    67.27000000    38.52000000
   H     84.88000000    65.75000000    38.53000000
   H     84.74000000    65.19000000    40.05000000
   H     83.26000000    65.10000000    39.08000000
   H     83.96000000    67.52000000    36.93000000
   H     82.84000000    68.84000000    36.82000000
   H     84.31000000    68.98000000    37.84000000
   N     83.77000000    65.26000000    42.52000000
   C     84.56000000    64.44000000    43.41000000
   C     85.36000000    63.41000000    42.62000000
   O     85.03000000    63.08000000    41.49000000
   C     83.68000000    63.72000000    44.43000000
   O     82.56000000    62.95000000    44.04000000
   H     82.96000000    64.81000000    42.11000000
   H     85.32000000    65.05000000    43.89000000
   H     83.23000000    64.51000000    45.03000000
   H     84.32000000    63.13000000    45.09000000
   H     81.94000000    63.50000000    43.55000000
   N     86.31000000    62.78000000    43.31000000
   C     87.16000000    61.71000000    42.84000000
   C     86.53000000    60.46000000    42.25000000
   O     86.90000000    59.90000000    41.21000000
   C     88.26000000    61.55000000    43.88000000
   H     86.64000000    63.11000000    44.21000000
   H     87.63000000    62.24000000    42.01000000
   H     88.63000000    62.49000000    44.30000000
   H     87.84000000    61.00000000    44.72000000
   H     89.11000000    60.99000000    43.48000000
   N     85.60000000    59.87000000    43.01000000
   C     84.70000000    58.82000000    42.57000000
   C     83.83000000    59.15000000    41.36000000
   O     83.47000000    58.26000000    40.60000000
   C     83.92000000    58.39000000    43.81000000
   H     85.50000000    60.27000000    43.93000000
   H     85.36000000    58.02000000    42.25000000
   H     83.27000000    57.59000000    43.47000000
   H     84.53000000    57.83000000    44.52000000
   H     83.31000000    59.13000000    44.33000000
   N     83.36000000    60.38000000    41.17000000
   C     82.53000000    60.81000000    40.06000000
   C     83.33000000    61.01000000    38.78000000
   O     82.82000000    60.86000000    37.68000000
   C     81.92000000    62.17000000    40.41000000
   C     80.71000000    62.05000000    41.33000000
   C     80.29000000    63.46000000    41.71000000
   O     81.08000000    64.19000000    42.35000000
   O     79.14000000    63.82000000    41.38000000
   H     83.31000000    60.90000000    42.04000000
   H     81.73000000    60.11000000    39.85000000
   H     81.60000000    62.50000000    39.42000000
   H     82.63000000    62.84000000    40.90000000
   H     81.05000000    61.52000000    42.22000000
   H     79.89000000    61.54000000    40.83000000
   N     84.63000000    61.30000000    38.91000000
   C     85.55000000    61.57000000    37.83000000
   H     86.50400000    61.08400000    38.03600000
   H     85.14000000    61.18400000    36.89700000
   H     85.70300000    62.64600000    37.74200000
   H     84.92000000    61.53000000    39.85000000
  Ca     78.95000000    65.74000000    43.22000000
   O     77.83000000    65.67000000    45.70000000
   H     77.14000000    65.03000000    45.50000000
   H     78.06000000    65.50000000    46.61000000

Ca 1.70



