%chk=loop2.cluster218.chk
%nprocshared=20
%mem=10GB
%nosave
#b3lyp/svp scf=(tight,noincore,xqc) Test 
#IOP(5/87=12) Density=Current Pop=(MK,readradii) iop(6/33=2) iop(6/42=6)

loop2.cluster218 

   -2  1 
   C     54.34000000    21.93000000   -15.03000000
   C     54.20000000    20.45000000   -15.34000000
   O     55.09000000    19.70000000   -14.92000000
   H     55.19400000    22.33500000   -15.57200000
   H     53.43400000    22.45300000   -15.33700000
   H     54.49300000    22.06500000   -13.95900000
   N     53.13000000    20.03000000   -16.01000000
   C     53.10000000    18.64000000   -16.41000000
   C     53.88000000    18.34000000   -17.68000000
   O     53.39000000    18.70000000   -18.75000000
   C     51.62000000    18.26000000   -16.43000000
   C     51.39000000    16.84000000   -16.93000000
   O     52.16000000    15.87000000   -16.79000000
   O     50.24000000    16.68000000   -17.40000000
   H     52.46000000    20.75000000   -16.25000000
   H     53.57000000    18.08000000   -15.59000000
   H     51.16000000    19.06000000   -17.01000000
   H     51.28000000    18.31000000   -15.40000000
   N     55.05000000    17.71000000   -17.56000000
   C     56.09000000    17.80000000   -18.57000000
   C     55.73000000    16.91000000   -19.75000000
   O     56.01000000    17.36000000   -20.86000000
   C     57.45000000    17.43000000   -17.99000000
   H     55.33000000    17.46000000   -16.62000000
   H     56.03000000    18.81000000   -18.98000000
   H     57.69000000    18.05000000   -17.13000000
   H     57.44000000    16.42000000   -17.59000000
   H     58.19000000    17.50000000   -18.78000000
   N     55.22000000    15.69000000   -19.59000000
   C     54.75000000    14.80000000   -20.63000000
   C     53.34000000    15.13000000   -21.09000000
   O     52.85000000    14.59000000   -22.08000000
   C     54.86000000    13.37000000   -20.10000000
   C     54.39000000    13.06000000   -18.68000000
   O     54.12000000    13.95000000   -17.86000000
   O     54.34000000    11.85000000   -18.37000000
   H     54.89000000    15.57000000   -18.64000000
   H     55.41000000    14.75000000   -21.50000000
   H     55.90000000    13.08000000   -20.26000000
   H     54.22000000    12.79000000   -20.76000000
   N     52.58000000    15.95000000   -20.35000000
   C     51.19000000    16.24000000   -20.62000000
   C     50.33000000    15.00000000   -20.39000000
   O     49.37000000    14.81000000   -21.12000000
   H     52.95000000    16.34000000   -19.49000000
   H     51.08000000    16.56000000   -21.65000000
   H     50.91000000    16.99000000   -19.87000000
   N     50.69000000    14.21000000   -19.37000000
   C     49.90000000    13.05000000   -19.03000000
   C     48.68000000    13.26000000   -18.15000000
   O     47.90000000    12.33000000   -17.96000000
   C     50.87000000    12.00000000   -18.48000000
   C     50.98000000    11.97000000   -16.96000000
   N     50.73000000    10.79000000   -16.40000000
   O     51.31000000    12.93000000   -16.26000000
   H     51.49000000    14.52000000   -18.83000000
   H     49.65000000    12.60000000   -19.99000000
   H     51.87000000    12.07000000   -18.92000000
   H     50.46000000    11.05000000   -18.80000000
   H     50.57000000    10.00000000   -17.01000000
   H     50.96000000    10.58000000   -15.44000000
   N     48.50000000    14.48000000   -17.66000000
   C     47.43000000    15.00000000   -16.83000000
   C     47.54000000    14.68000000   -15.34000000
   O     46.54000000    14.46000000   -14.66000000
   H     49.22000000    15.16000000   -17.86000000
   H     46.51000000    14.50000000   -17.14000000
   H     47.22000000    16.07000000   -16.88000000
   N     48.75000000    14.65000000   -14.78000000
   C     49.00000000    14.52000000   -13.36000000
   C     50.35000000    15.14000000   -13.00000000
   O     51.24000000    15.23000000   -13.85000000
   C     49.15000000    13.13000000   -12.76000000
   C     47.87000000    12.63000000   -12.11000000
   O     49.48000000    12.27000000   -13.83000000
   H     49.55000000    14.81000000   -15.39000000
   H     48.18000000    14.95000000   -12.79000000
   H     49.96000000    13.00000000   -12.04000000
   H     50.36000000    12.60000000   -14.05000000
   H     47.04000000    12.80000000   -12.81000000
   H     47.96000000    11.55000000   -12.02000000
   H     47.64000000    13.07000000   -11.14000000
   N     50.46000000    15.64000000   -11.77000000
   C     51.64000000    16.31000000   -11.27000000
   C     52.41000000    15.37000000   -10.35000000
   O     51.92000000    14.99000000    -9.29000000
   C     51.30000000    17.56000000   -10.45000000
   C     50.70000000    18.64000000   -11.34000000
   C     52.45000000    18.14000000    -9.63000000
   C     49.75000000    19.58000000   -10.60000000
   H     49.70000000    15.58000000   -11.11000000
   H     52.30000000    16.59000000   -12.09000000
   H     50.52000000    17.21000000    -9.77000000
   H     50.08000000    18.13000000   -12.07000000
   H     51.48000000    19.27000000   -11.78000000
   H     52.13000000    19.02000000    -9.07000000
   H     52.93000000    17.45000000    -8.93000000
   H     53.20000000    18.59000000   -10.28000000
   H     48.91000000    18.92000000   -10.35000000
   H     50.17000000    19.95000000    -9.67000000
   H     49.47000000    20.36000000   -11.30000000
   N     53.66000000    15.09000000   -10.73000000
   C     54.60000000    14.30000000    -9.97000000
   C     55.33000000    15.20000000    -8.98000000
   O     55.37000000    16.41000000    -9.18000000
   C     55.66000000    13.67000000   -10.86000000
   C     55.06000000    12.94000000   -12.06000000
   O     54.35000000    11.96000000   -11.75000000
   O     55.07000000    13.40000000   -13.22000000
   H     54.00000000    15.56000000   -11.56000000
   H     54.08000000    13.48000000    -9.48000000
   H     56.19000000    13.01000000   -10.17000000
   H     56.34000000    14.45000000   -11.21000000
   N     56.05000000    14.60000000    -8.03000000
   C     56.72000000    15.37000000    -7.00000000
   C     57.73000000    16.38000000    -7.55000000
   O     57.66000000    17.53000000    -7.13000000
   C     57.34000000    14.41000000    -5.99000000
   C     57.98000000    15.08000000    -4.80000000
   C     59.31000000    14.79000000    -4.48000000
   C     57.20000000    15.86000000    -3.94000000
   C     59.88000000    15.29000000    -3.30000000
   C     57.84000000    16.60000000    -2.93000000
   C     59.13000000    16.21000000    -2.56000000
   H     55.91000000    13.62000000    -7.84000000
   H     56.04000000    15.97000000    -6.39000000
   H     58.09000000    13.77000000    -6.46000000
   H     56.52000000    13.76000000    -5.70000000
   H     59.85000000    14.07000000    -5.09000000
   H     56.16000000    16.01000000    -4.21000000
   H     60.87000000    15.01000000    -2.97000000
   H     57.23000000    17.17000000    -2.25000000
   H     59.54000000    16.58000000    -1.63000000
   N     58.63000000    16.04000000    -8.47000000
   C     59.49000000    17.01000000    -9.11000000
   C     58.77000000    18.10000000    -9.90000000
   O     59.31000000    19.17000000   -10.19000000
   C     60.41000000    16.17000000    -9.99000000
   C     59.64000000    14.89000000   -10.30000000
   C     59.04000000    14.72000000    -8.91000000
   H     60.11000000    17.46000000    -8.34000000
   H     60.66000000    16.83000000   -10.83000000
   H     61.30000000    15.92000000    -9.42000000
   H     58.82000000    15.16000000   -10.98000000
   H     60.26000000    14.06000000   -10.62000000
   H     58.25000000    13.97000000    -8.94000000
   H     59.89000000    14.41000000    -8.31000000
   N     57.55000000    17.78000000   -10.32000000
   C     56.66000000    18.69000000   -11.02000000
   C     55.95000000    19.66000000   -10.09000000
   O     55.92000000    20.85000000   -10.40000000
   C     55.61000000    18.14000000   -11.98000000
   C     56.20000000    17.28000000   -13.10000000
   C     55.15000000    16.58000000   -13.95000000
   O     55.32000000    16.25000000   -15.14000000
   O     54.19000000    16.01000000   -13.38000000
   H     57.19000000    16.86000000   -10.13000000
   H     57.31000000    19.31000000   -11.63000000
   H     55.06000000    19.00000000   -12.36000000
   H     54.99000000    17.40000000   -11.47000000
   H     56.79000000    16.46000000   -12.70000000
   H     56.83000000    17.84000000   -13.80000000
   N     55.62000000    19.17000000    -8.90000000
   C     55.05000000    19.98000000    -7.84000000
   H     54.04000000    19.63200000    -7.62100000
   H     55.66600000    19.89400000    -6.94500000
   H     55.01400000    21.02200000    -8.15800000
   H     55.62000000    18.16000000    -8.82000000
  Ca     53.50000000    14.24000000   -15.18500000
   O     54.18000000    11.66000000   -15.77500000
   H     54.74000000    10.92000000   -15.52500000
   H     54.24000000    11.68000000   -16.73500000
   O     56.67000000    13.99000000   -15.31500000
   H     56.46000000    13.75000000   -14.41500000
   H     56.41000000    14.91000000   -15.38500000
   O     52.23000000    12.35000000   -13.23500000
   H     52.98000000    12.21000000   -12.64500000
   H     52.12000000    11.51000000   -13.67500000

Ca 1.00



