%chk=loop1.cluster27.chk
%nprocshared=20
%mem=10GB
%nosave
#b3lyp/svp scf=(tight,noincore,xqc) Test 
#IOP(5/87=12) Density=Current Pop=(MK,readradii) iop(6/33=2) iop(6/42=6)

loop1.cluster27 

   0  1 
   C     48.47000000    38.02000000    42.57000000
   C     47.91000000    37.70000000    41.19000000
   O     46.69000000    37.62000000    41.04000000
   H     49.35500000    38.64800000    42.46600000
   H     47.71700000    38.54900000    43.15500000
   H     48.74000000    37.09400000    43.07700000
   N     48.76000000    37.81000000    40.17000000
   C     48.34000000    37.62000000    38.80000000
   C     48.73000000    36.31000000    38.13000000
   O     49.61000000    35.59000000    38.60000000
   C     48.75000000    38.85000000    37.99000000
   C     48.25000000    38.95000000    36.56000000
   O     47.30000000    38.25000000    36.16000000
   O     48.87000000    39.66000000    35.73000000
   H     49.68000000    37.43000000    40.32000000
   H     47.25000000    37.60000000    38.76000000
   H     49.84000000    38.91000000    38.00000000
   H     48.48000000    39.76000000    38.53000000
   N     48.03000000    35.93000000    37.06000000
   C     48.05000000    34.59000000    36.51000000
   C     49.40000000    34.22000000    35.91000000
   O     50.03000000    33.32000000    36.46000000
   C     46.76000000    34.39000000    35.71000000
   C     46.86000000    33.18000000    34.78000000
   C     45.68000000    33.05000000    33.82000000
   C     45.98000000    31.97000000    32.78000000
   N     44.79000000    31.53000000    32.03000000
   H     47.41000000    36.61000000    36.63000000
   H     47.98000000    33.91000000    37.36000000
   H     46.57000000    35.31000000    35.16000000
   H     45.85000000    34.25000000    36.30000000
   H     46.86000000    32.26000000    35.36000000
   H     47.76000000    33.25000000    34.16000000
   H     45.56000000    34.00000000    33.31000000
   H     44.77000000    32.85000000    34.39000000
   H     46.30000000    31.10000000    33.35000000
   H     46.74000000    32.18000000    32.03000000
   H     44.49000000    32.16000000    31.30000000
   H     45.05000000    30.76000000    31.43000000
   H     43.94000000    31.22000000    32.49000000
   N     49.87000000    34.90000000    34.87000000
   C     49.55000000    36.19000000    34.28000000
   C     50.88000000    36.93000000    34.27000000
   O     51.94000000    36.34000000    34.11000000
   C     48.99000000    36.00000000    32.88000000
   C     48.67000000    37.33000000    32.19000000
   O     48.44000000    38.32000000    32.92000000
   O     48.42000000    37.39000000    30.97000000
   H     50.81000000    34.57000000    34.66000000
   H     48.81000000    36.71000000    34.89000000
   H     48.12000000    35.34000000    32.89000000
   H     49.72000000    35.55000000    32.22000000
   N     50.90000000    38.25000000    34.50000000
   C     52.10000000    39.07000000    34.44000000
   C     52.03000000    40.50000000    34.94000000
   O     52.14000000    40.88000000    36.11000000
   H     50.08000000    38.76000000    34.76000000
   H     52.43000000    39.08000000    33.40000000
   H     52.85000000    38.70000000    35.13000000
   N     51.71000000    41.45000000    34.06000000
   C     51.36000000    42.84000000    34.30000000
   C     52.48000000    43.80000000    33.93000000
   O     53.27000000    43.44000000    33.05000000
   C     50.02000000    43.28000000    33.72000000
   C     48.93000000    42.23000000    33.80000000
   O     48.07000000    42.30000000    34.71000000
   O     48.76000000    41.48000000    32.82000000
   H     51.77000000    41.19000000    33.09000000
   H     51.11000000    42.89000000    35.36000000
   H     50.20000000    43.53000000    32.67000000
   H     49.68000000    44.20000000    34.19000000
   N     52.67000000    44.93000000    34.61000000
   C     51.83000000    45.64000000    35.55000000
   C     51.08000000    46.79000000    34.90000000
   O     50.29000000    47.48000000    35.54000000
   H     53.53000000    45.44000000    34.44000000
   H     52.44000000    46.03000000    36.36000000
   H     51.13000000    44.98000000    36.06000000
   N     51.33000000    47.10000000    33.63000000
   C     50.85000000    48.23000000    32.85000000
   C     51.42000000    49.50000000    33.46000000
   O     50.69000000    50.45000000    33.74000000
   C     49.35000000    48.19000000    32.58000000
   C     48.67000000    46.85000000    32.29000000
   O     48.99000000    49.05000000    31.53000000
   H     52.03000000    46.50000000    33.22000000
   H     51.33000000    48.20000000    31.87000000
   H     48.84000000    48.54000000    33.48000000
   H     48.65000000    49.89000000    31.85000000
   H     47.62000000    46.93000000    32.02000000
   H     49.19000000    46.51000000    31.40000000
   H     48.82000000    46.10000000    33.07000000
   N     52.73000000    49.44000000    33.71000000
   C     53.61000000    50.53000000    34.05000000
   C     53.78000000    51.54000000    32.93000000
   O     54.94000000    51.80000000    32.61000000
   C     53.37000000    51.22000000    35.39000000
   C     53.23000000    50.25000000    36.55000000
   C     54.49000000    52.23000000    35.64000000
   C     54.28000000    49.18000000    36.84000000
   H     53.23000000    48.58000000    33.53000000
   H     54.59000000    50.05000000    34.06000000
   H     52.39000000    51.70000000    35.46000000
   H     52.27000000    49.74000000    36.45000000
   H     53.09000000    50.76000000    37.51000000
   H     55.47000000    51.78000000    35.44000000
   H     54.28000000    53.14000000    35.09000000
   H     54.53000000    52.48000000    36.70000000
   H     54.38000000    49.16000000    37.92000000
   H     53.89000000    48.25000000    36.41000000
   H     55.27000000    49.42000000    36.45000000
   N     52.70000000    51.94000000    32.25000000
   C     52.76000000    52.87000000    31.14000000
   C     52.24000000    54.23000000    31.58000000
   O     51.84000000    54.40000000    32.73000000
   C     51.92000000    52.36000000    29.97000000
   C     50.43000000    52.10000000    30.18000000
   O     52.50000000    51.14000000    29.57000000
   H     51.82000000    51.70000000    32.66000000
   H     53.78000000    53.11000000    30.82000000
   H     52.03000000    53.08000000    29.16000000
   H     53.32000000    51.38000000    29.13000000
   H     49.97000000    51.82000000    29.23000000
   H     50.31000000    51.25000000    30.85000000
   H     49.91000000    53.03000000    30.42000000
   N     52.23000000    55.22000000    30.68000000
   C     51.58000000    56.50000000    30.90000000
   C     50.08000000    56.32000000    30.71000000
   O     49.60000000    55.60000000    29.83000000
   C     52.18000000    57.68000000    30.14000000
   C     53.67000000    57.87000000    30.41000000
   O     51.94000000    57.53000000    28.76000000
   H     52.56000000    55.05000000    29.74000000
   H     51.67000000    56.76000000    31.96000000
   H     51.69000000    58.60000000    30.45000000
   H     52.49000000    56.84000000    28.39000000
   H     54.26000000    57.01000000    30.10000000
   H     54.04000000    58.66000000    29.76000000
   H     53.81000000    57.98000000    31.48000000
   N     49.32000000    57.09000000    31.48000000
   C     47.87000000    57.07000000    31.60000000
   C     47.26000000    55.68000000    31.52000000
   O     46.57000000    55.39000000    30.54000000
   C     47.22000000    58.04000000    30.62000000
   C     47.59000000    59.50000000    30.82000000
   C     46.84000000    60.44000000    29.87000000
   C     47.27000000    61.90000000    29.96000000
   N     46.32000000    62.78000000    29.27000000
   H     49.74000000    57.67000000    32.19000000
   H     47.68000000    57.58000000    32.54000000
   H     46.13000000    57.97000000    30.63000000
   H     47.42000000    57.72000000    29.59000000
   H     48.67000000    59.57000000    30.66000000
   H     47.38000000    59.88000000    31.82000000
   H     45.85000000    60.30000000    30.30000000
   H     46.83000000    59.98000000    28.88000000
   H     48.31000000    61.96000000    29.63000000
   H     47.23000000    62.24000000    31.00000000
   H     46.42000000    63.76000000    29.48000000
   H     46.41000000    62.71000000    28.26000000
   H     45.37000000    62.53000000    29.51000000
   N     47.53000000    54.82000000    32.50000000
   C     46.93000000    53.50000000    32.66000000
   C     47.82000000    52.42000000    33.26000000
   O     47.86000000    51.36000000    32.65000000
   C     45.71000000    53.56000000    33.58000000
   C     44.52000000    54.35000000    33.04000000
   C     43.37000000    54.52000000    34.02000000
   O     42.83000000    55.64000000    34.08000000
   O     42.92000000    53.56000000    34.69000000
   H     48.15000000    55.16000000    33.22000000
   H     46.62000000    53.10000000    31.70000000
   H     45.88000000    54.04000000    34.54000000
   H     45.37000000    52.54000000    33.74000000
   H     44.19000000    53.93000000    32.10000000
   H     44.89000000    55.36000000    32.85000000
   N     48.69000000    52.64000000    34.25000000
   C     48.80000000    53.75000000    35.17000000
   H     49.43600000    54.52100000    34.73400000
   H     47.81000000    54.16300000    35.36200000
   H     49.23800000    53.40500000    36.10600000
   H     49.28000000    51.82000000    34.32000000
  Ca     47.01000000    40.07000000    34.04000000
   O     45.43000000    42.11000000    33.45000000
   H     44.71000000    42.41000000    34.00000000
   H     45.60000000    42.83000000    32.85000000
   O     44.88000000    38.59000000    34.16000000
   H     44.09000000    38.84000000    34.64000000
   H     44.60000000    37.88000000    33.58000000
   O     45.48000000    40.99000000    36.10000000
   H     44.69000000    40.70000000    36.55000000
   H     45.81000000    41.71000000    36.63000000
   O     46.44000000    39.83000000    31.24000000
   H     46.33000000    40.26000000    30.39000000
   H     47.08000000    39.13000000    31.08000000

Ca 1.00



