%chk=loop2.cluster126.chk
%nprocshared=20
%mem=10GB
%nosave
#b3lyp/svp scf=(tight,noincore,xqc) Test 
#IOP(5/87=12) Density=Current Pop=(MK,readradii) iop(6/33=2) iop(6/42=6)

loop2.cluster126 

   -2  1 
   C     91.19000000    83.17000000    29.47000000
   C     92.29000000    83.33000000    30.52000000
   O     93.01000000    84.32000000    30.40000000
   H     90.34800000    83.81300000    29.72600000
   H     91.57800000    83.45200000    28.49100000
   H     90.85900000    82.13200000    29.44500000
   N     92.51000000    82.41000000    31.45000000
   C     93.59000000    82.52000000    32.41000000
   C     93.14000000    83.16000000    33.72000000
   O     93.49000000    82.69000000    34.80000000
   C     94.15000000    81.10000000    32.43000000
   C     95.59000000    80.91000000    32.89000000
   O     96.25000000    81.85000000    33.37000000
   O     96.12000000    79.78000000    32.80000000
   H     91.85000000    81.65000000    31.50000000
   H     94.36000000    83.22000000    32.07000000
   H     94.07000000    80.65000000    31.44000000
   H     93.47000000    80.55000000    33.08000000
   N     92.35000000    84.22000000    33.56000000
   C     91.95000000    85.17000000    34.58000000
   C     90.55000000    85.65000000    34.21000000
   O     90.22000000    85.73000000    33.03000000
   C     92.86000000    86.39000000    34.51000000
   H     92.03000000    84.40000000    32.62000000
   H     91.87000000    84.72000000    35.56000000
   H     93.83000000    85.88000000    34.59000000
   H     92.74000000    86.84000000    33.52000000
   H     92.67000000    87.10000000    35.31000000
   N     89.71000000    86.11000000    35.14000000
   C     89.93000000    86.20000000    36.57000000
   C     89.58000000    84.94000000    37.36000000
   O     88.88000000    84.05000000    36.88000000
   C     89.20000000    87.43000000    37.09000000
   C     89.59000000    88.75000000    36.45000000
   O     90.81000000    88.99000000    36.31000000
   O     88.73000000    89.60000000    36.13000000
   H     88.90000000    86.55000000    34.72000000
   H     91.00000000    86.42000000    36.58000000
   H     89.22000000    87.55000000    38.18000000
   H     88.17000000    87.36000000    36.74000000
   N     90.16000000    84.81000000    38.56000000
   C     89.86000000    83.68000000    39.41000000
   C     90.46000000    82.37000000    38.91000000
   O     91.59000000    82.31000000    38.44000000
   H     90.74000000    85.54000000    38.94000000
   H     88.78000000    83.59000000    39.50000000
   H     90.27000000    83.85000000    40.41000000
   N     89.76000000    81.25000000    39.05000000
   C     88.69000000    81.12000000    40.02000000
   C     87.32000000    81.53000000    39.48000000
   O     86.29000000    81.36000000    40.11000000
   C     88.63000000    79.64000000    40.39000000
   C     89.93000000    79.11000000    40.99000000
   N     89.99000000    78.81000000    42.29000000
   O     90.91000000    78.87000000    40.30000000
   H     90.13000000    80.37000000    38.71000000
   H     88.96000000    81.65000000    40.93000000
   H     88.32000000    79.11000000    39.49000000
   H     87.81000000    79.49000000    41.09000000
   H     89.15000000    78.86000000    42.85000000
   H     90.84000000    78.40000000    42.66000000
   N     87.31000000    81.99000000    38.22000000
   C     86.02000000    82.28000000    37.63000000
   C     85.32000000    83.50000000    38.22000000
   O     84.16000000    83.33000000    38.59000000
   H     88.18000000    82.08000000    37.71000000
   H     85.33000000    81.46000000    37.81000000
   H     86.16000000    82.43000000    36.56000000
   N     85.95000000    84.66000000    38.35000000
   C     85.53000000    85.85000000    39.06000000
   C     85.25000000    87.05000000    38.17000000
   O     85.79000000    88.14000000    38.35000000
   C     86.56000000    86.30000000    40.10000000
   C     85.85000000    87.01000000    41.25000000
   O     87.14000000    85.17000000    40.71000000
   H     86.95000000    84.52000000    38.28000000
   H     84.60000000    85.52000000    39.53000000
   H     87.31000000    86.94000000    39.64000000
   H     87.67000000    85.48000000    41.45000000
   H     86.61000000    87.32000000    41.97000000
   H     85.39000000    87.95000000    40.96000000
   H     85.14000000    86.31000000    41.69000000
   N     84.72000000    86.69000000    37.00000000
   C     84.59000000    87.53000000    35.82000000
   C     83.38000000    88.45000000    35.94000000
   O     82.48000000    88.22000000    36.74000000
   C     84.61000000    86.69000000    34.55000000
   C     86.00000000    86.34000000    34.00000000
   C     83.68000000    85.49000000    34.62000000
   C     86.68000000    85.29000000    34.87000000
   H     84.38000000    85.74000000    36.96000000
   H     85.44000000    88.20000000    35.77000000
   H     84.18000000    87.34000000    33.79000000
   H     86.54000000    87.28000000    33.85000000
   H     85.90000000    85.91000000    33.00000000
   H     82.70000000    85.90000000    34.88000000
   H     83.61000000    84.98000000    33.66000000
   H     83.86000000    84.86000000    35.50000000
   H     87.61000000    85.06000000    34.36000000
   H     86.90000000    85.80000000    35.80000000
   H     86.04000000    84.40000000    34.86000000
   N     83.22000000    89.52000000    35.16000000
   C     82.06000000    90.39000000    35.07000000
   C     81.49000000    90.36000000    33.66000000
   O     81.85000000    89.57000000    32.79000000
   C     82.48000000    91.78000000    35.52000000
   C     83.63000000    92.30000000    34.67000000
   O     84.81000000    92.21000000    35.08000000
   O     83.34000000    92.89000000    33.61000000
   H     84.08000000    89.77000000    34.70000000
   H     81.30000000    90.05000000    35.77000000
   H     82.90000000    91.73000000    36.53000000
   H     81.63000000    92.45000000    35.42000000
   N     80.37000000    91.05000000    33.45000000
   C     79.47000000    91.12000000    32.32000000
   C     80.08000000    90.95000000    30.94000000
   O     79.94000000    89.94000000    30.24000000
   C     78.38000000    90.10000000    32.66000000
   C     77.01000000    90.54000000    32.23000000
   C     76.67000000    90.33000000    30.89000000
   C     76.11000000    91.21000000    33.07000000
   C     75.33000000    90.49000000    30.49000000
   C     74.79000000    91.39000000    32.64000000
   C     74.37000000    91.00000000    31.36000000
   H     80.15000000    91.58000000    34.29000000
   H     79.01000000    92.11000000    32.43000000
   H     78.26000000    90.07000000    33.74000000
   H     78.63000000    89.12000000    32.24000000
   H     77.25000000    89.76000000    30.17000000
   H     76.40000000    91.37000000    34.10000000
   H     75.09000000    90.40000000    29.45000000
   H     74.11000000    91.91000000    33.30000000
   H     73.35000000    91.11000000    31.00000000
   N     80.80000000    91.98000000    30.48000000
   C     81.47000000    92.09000000    29.20000000
   C     82.76000000    91.28000000    29.10000000
   O     83.23000000    91.05000000    27.99000000
   C     81.64000000    93.58000000    28.95000000
   C     82.06000000    93.94000000    30.37000000
   C     80.91000000    93.27000000    31.12000000
   H     80.86000000    91.69000000    28.39000000
   H     82.45000000    93.76000000    28.24000000
   H     80.66000000    94.03000000    28.80000000
   H     83.04000000    93.59000000    30.72000000
   H     81.96000000    95.00000000    30.58000000
   H     81.24000000    93.15000000    32.15000000
   H     80.02000000    93.89000000    31.10000000
   N     83.32000000    90.85000000    30.23000000
   C     84.38000000    89.86000000    30.22000000
   C     83.91000000    88.42000000    30.10000000
   O     84.49000000    87.64000000    29.35000000
   C     85.12000000    89.94000000    31.56000000
   C     86.35000000    89.05000000    31.55000000
   C     87.42000000    89.54000000    32.52000000
   O     87.11000000    90.20000000    33.54000000
   O     88.62000000    89.28000000    32.34000000
   H     82.82000000    91.04000000    31.09000000
   H     85.08000000    90.06000000    29.41000000
   H     84.41000000    89.65000000    32.34000000
   H     85.41000000    90.98000000    31.71000000
   H     86.61000000    89.10000000    30.50000000
   H     86.09000000    88.01000000    31.75000000
   N     82.74000000    88.12000000    30.67000000
   C     82.10000000    86.83000000    30.49000000
   H     81.14900000    86.96600000    29.97600000
   H     82.74500000    86.18400000    29.89500000
   H     81.92400000    86.37200000    31.46300000
   H     82.21000000    88.71000000    31.29000000
  Ca     87.23000000    91.66000000    35.58000000
   O     86.05000000    90.72000000    37.64000000
   H     85.61000000    91.31000000    38.24000000
   H     85.89000000    89.84000000    38.00000000
   O     87.33000000    93.11000000    33.04000000
   H     86.48000000    93.30000000    32.63000000
   H     87.83000000    93.92000000    32.93000000
   O     88.98000000    92.00000000    38.26000000
   H     89.86000000    91.68000000    38.42000000
   H     88.55000000    91.97000000    39.11000000
   O     89.80000000    92.90000000    35.54000000
   H     90.11000000    93.07000000    36.43000000
   H     90.36000000    93.44000000    34.98000000

Ca 1.00



