%chk=loop4.cluster63.chk
%nprocshared=20
%mem=10GB
%nosave
#b3lyp/svp scf=(tight,noincore,xqc) Test 
#IOP(5/87=12) Density=Current Pop=(MK,readradii) iop(6/33=2) iop(6/42=6)

loop4.cluster63 

   -3  1 
   C     39.89000000    40.77000000    42.33000000
   C     40.07000000    40.36000000    43.78000000
   O     41.17000000    39.90000000    44.07000000
   H     39.22500000    41.63200000    42.27700000
   H     40.85800000    41.03200000    41.90300000
   H     39.45600000    39.94200000    41.76900000
   N     39.09000000    40.46000000    44.68000000
   C     39.27000000    40.33000000    46.11000000
   C     40.53000000    40.98000000    46.67000000
   O     41.38000000    40.37000000    47.32000000
   C     39.12000000    38.89000000    46.60000000
   C     39.70000000    37.75000000    45.77000000
   O     39.00000000    37.17000000    44.91000000
   O     40.91000000    37.47000000    45.91000000
   H     38.17000000    40.72000000    44.34000000
   H     38.44000000    40.91000000    46.51000000
   H     38.05000000    38.69000000    46.57000000
   H     39.46000000    38.84000000    47.63000000
   N     40.56000000    42.28000000    46.38000000
   C     41.51000000    43.35000000    46.60000000
   C     41.51000000    43.75000000    48.07000000
   O     41.62000000    44.92000000    48.44000000
   C     42.86000000    43.06000000    45.96000000
   C     43.99000000    44.01000000    46.32000000
   C     42.74000000    42.95000000    44.45000000
   C     45.26000000    43.74000000    45.51000000
   H     39.81000000    42.56000000    45.76000000
   H     41.13000000    44.18000000    46.00000000
   H     43.25000000    42.10000000    46.31000000
   H     44.19000000    43.92000000    47.39000000
   H     43.62000000    45.03000000    46.23000000
   H     43.36000000    42.13000000    44.07000000
   H     41.75000000    42.69000000    44.08000000
   H     43.09000000    43.85000000    43.95000000
   H     45.70000000    42.75000000    45.57000000
   H     45.18000000    44.07000000    44.48000000
   H     46.03000000    44.44000000    45.81000000
   N     41.44000000    42.77000000    48.99000000
   C     41.47000000    43.04000000    50.41000000
   C     42.80000000    43.03000000    51.16000000
   O     42.83000000    43.57000000    52.26000000
   C     40.46000000    42.07000000    50.99000000
   C     39.07000000    42.43000000    50.49000000
   O     38.68000000    43.62000000    50.57000000
   O     38.27000000    41.52000000    50.18000000
   H     41.41000000    41.88000000    48.52000000
   H     41.10000000    44.06000000    50.56000000
   H     40.59000000    41.95000000    52.07000000
   H     40.78000000    41.06000000    50.74000000
   N     43.93000000    42.45000000    50.76000000
   C     44.32000000    41.68000000    49.60000000
   C     44.61000000    40.24000000    50.00000000
   O     43.86000000    39.63000000    50.75000000
   H     44.64000000    42.54000000    51.47000000
   H     45.16000000    42.19000000    49.11000000
   H     43.57000000    41.61000000    48.81000000
   N     45.70000000    39.57000000    49.62000000
   C     46.91000000    40.31000000    49.30000000
   C     46.87000000    40.93000000    47.91000000
   O     46.13000000    40.47000000    47.05000000
   C     48.04000000    39.32000000    49.53000000
   C     49.41000000    39.93000000    49.28000000
   O     50.11000000    40.19000000    50.29000000
   O     49.82000000    40.10000000    48.11000000
   H     45.72000000    38.59000000    49.83000000
   H     47.09000000    41.02000000    50.10000000
   H     48.07000000    38.45000000    48.86000000
   H     48.03000000    38.87000000    50.52000000
   N     47.52000000    42.07000000    47.64000000
   C     48.12000000    42.96000000    48.61000000
   C     49.25000000    43.90000000    48.19000000
   O     48.93000000    45.08000000    48.10000000
   H     47.70000000    42.19000000    46.65000000
   H     48.46000000    42.41000000    49.49000000
   H     47.32000000    43.63000000    48.90000000
   N     50.48000000    43.40000000    48.08000000
   C     51.69000000    44.15000000    47.81000000
   C     51.80000000    44.73000000    46.41000000
   O     52.78000000    45.37000000    46.04000000
   C     52.88000000    43.47000000    48.48000000
   C     53.17000000    42.04000000    48.03000000
   C     52.87000000    41.65000000    46.59000000
   N     51.77000000    40.95000000    46.28000000
   O     53.67000000    41.95000000    45.71000000
   H     50.59000000    42.40000000    48.21000000
   H     51.53000000    45.02000000    48.45000000
   H     52.66000000    43.47000000    49.54000000
   H     53.82000000    44.00000000    48.32000000
   H     52.59000000    41.38000000    48.67000000
   H     54.23000000    41.89000000    48.25000000
   H     51.08000000    40.56000000    46.91000000
   H     51.62000000    40.84000000    45.29000000
   N     50.81000000    44.66000000    45.52000000
   C     50.72000000    45.43000000    44.30000000
   C     51.54000000    44.80000000    43.18000000
   O     51.57000000    43.58000000    43.02000000
   C     49.28000000    45.80000000    43.96000000
   C     48.36000000    44.65000000    43.55000000
   C     49.18000000    47.02000000    43.04000000
   H     50.02000000    44.07000000    45.74000000
   H     51.14000000    46.43000000    44.40000000
   H     48.86000000    46.13000000    44.91000000
   H     48.61000000    44.41000000    42.51000000
   H     48.43000000    43.79000000    44.21000000
   H     47.33000000    44.99000000    43.56000000
   H     49.60000000    46.73000000    42.08000000
   H     48.17000000    47.44000000    43.05000000
   H     49.71000000    47.85000000    43.49000000
   N     52.24000000    45.63000000    42.41000000
   C     52.96000000    45.39000000    41.17000000
   C     52.19000000    44.60000000    40.12000000
   O     51.96000000    45.05000000    39.00000000
   C     54.28000000    44.83000000    41.67000000
   C     55.35000000    44.57000000    40.63000000
   N     56.37000000    43.79000000    41.00000000
   O     55.38000000    45.19000000    39.56000000
   H     52.27000000    46.55000000    42.84000000
   H     53.19000000    46.37000000    40.75000000
   H     54.10000000    43.85000000    42.11000000
   H     54.73000000    45.49000000    42.42000000
   H     56.25000000    43.39000000    41.92000000
   H     57.26000000    43.89000000    40.52000000
   N     52.05000000    43.29000000    40.34000000
   C     51.68000000    42.26000000    39.39000000
   C     50.73000000    41.23000000    39.98000000
   O     50.19000000    41.35000000    41.08000000
   C     52.93000000    41.64000000    38.77000000
   C     54.01000000    41.12000000    39.68000000
   C     53.81000000    40.72000000    41.01000000
   C     55.18000000    40.74000000    39.02000000
   C     54.84000000    40.06000000    41.69000000
   C     56.21000000    40.13000000    39.74000000
   C     56.06000000    39.70000000    41.08000000
   O     57.03000000    39.12000000    41.84000000
   H     52.36000000    42.97000000    41.25000000
   H     51.08000000    42.68000000    38.58000000
   H     53.34000000    42.46000000    38.18000000
   H     52.71000000    40.89000000    38.00000000
   H     52.90000000    40.91000000    41.57000000
   H     55.35000000    41.09000000    38.01000000
   H     54.77000000    39.77000000    42.72000000
   H     57.16000000    40.12000000    39.23000000
   H     57.87000000    39.08000000    41.39000000
   N     50.48000000    40.11000000    39.28000000
   C     49.77000000    38.91000000    39.66000000
   C     48.28000000    39.10000000    39.88000000
   O     47.57000000    38.26000000    39.34000000
   C     50.52000000    38.31000000    40.85000000
   C     51.93000000    37.80000000    40.62000000
   C     51.93000000    36.43000000    39.95000000
   O     50.91000000    35.96000000    39.39000000
   O     53.05000000    35.89000000    39.85000000
   H     51.00000000    39.99000000    38.43000000
   H     49.83000000    38.22000000    38.81000000
   H     49.89000000    37.51000000    41.22000000
   H     50.57000000    39.10000000    41.60000000
   H     52.33000000    37.57000000    41.61000000
   H     52.50000000    38.52000000    40.04000000
   N     47.80000000    40.19000000    40.49000000
   C     46.39000000    40.49000000    40.34000000
   C     46.07000000    41.12000000    39.00000000
   O     45.19000000    40.64000000    38.29000000
   C     45.92000000    41.30000000    41.55000000
   C     45.90000000    40.61000000    42.92000000
   C     44.93000000    39.44000000    42.81000000
   O     45.34000000    38.28000000    43.03000000
   O     43.73000000    39.69000000    42.57000000
   H     48.48000000    40.73000000    41.01000000
   H     45.89000000    39.52000000    40.26000000
   H     44.89000000    41.56000000    41.33000000
   H     46.49000000    42.22000000    41.64000000
   H     45.54000000    41.36000000    43.62000000
   H     46.90000000    40.33000000    43.26000000
   N     46.88000000    42.13000000    38.66000000
   C     46.87000000    42.94000000    37.46000000
   H     47.23200000    43.94100000    37.69500000
   H     47.51800000    42.48700000    36.71000000
   H     45.85300000    43.00300000    37.07200000
   H     47.60000000    42.36000000    39.33000000
  Ca     42.86000000    37.87000000    44.08000000
   O     43.75000000    39.29000000    46.16000000
   H     44.54000000    39.78000000    46.40000000
   H     43.05000000    39.71000000    46.66000000
   O     43.69000000    35.84000000    42.70000000
   H     44.07000000    35.03000000    43.02000000
   H     43.09000000    35.56000000    42.00000000
   O     43.55000000    36.13000000    46.05000000
   H     43.37000000    36.35000000    46.97000000
   H     44.38000000    35.65000000    46.08000000
   O     40.66000000    36.14000000    43.31000000
   H     40.55000000    35.19000000    43.33000000
   H     39.97000000    36.48000000    43.88000000

Ca 1.00



