%chk=loop2.cluster10.chk
%nprocshared=20
%mem=10GB
%nosave
#b3lyp/svp scf=(tight,noincore,xqc) Test 
#IOP(5/87=12) Density=Current Pop=(MK,readradii) iop(6/33=2) iop(6/42=6)

loop2.cluster10 

   -2  1 
   C     63.00000000    35.25000000     6.19000000
   C     62.28000000    35.53000000     4.88000000
   O     61.71000000    34.68000000     4.19000000
   H     63.89900000    35.86400000     6.24800000
   H     62.34200000    35.49000000     7.02500000
   H     63.27600000    34.19700000     6.23500000
   N     62.27000000    36.77000000     4.41000000
   C     61.59000000    37.32000000     3.25000000
   C     61.86000000    36.72000000     1.88000000
   O     60.98000000    36.81000000     1.03000000
   C     62.06000000    38.77000000     3.13000000
   C     61.09000000    39.58000000     2.29000000
   O     61.59000000    40.47000000     1.57000000
   O     59.85000000    39.39000000     2.29000000
   H     62.75000000    37.43000000     5.01000000
   H     60.53000000    37.31000000     3.51000000
   H     63.05000000    38.77000000     2.68000000
   H     62.15000000    39.10000000     4.17000000
   N     63.01000000    36.08000000     1.63000000
   C     63.32000000    35.36000000     0.42000000
   C     62.44000000    34.15000000     0.11000000
   O     62.18000000    33.85000000    -1.05000000
   C     63.78000000    36.34000000    -0.66000000
   H     63.67000000    35.99000000     2.40000000
   H     64.23000000    34.85000000     0.72000000
   H     64.28000000    37.10000000    -0.06000000
   H     64.49000000    35.96000000    -1.39000000
   H     62.92000000    36.78000000    -1.15000000
   N     61.84000000    33.52000000     1.13000000
   C     60.89000000    32.43000000     1.11000000
   C     59.88000000    32.55000000    -0.02000000
   O     59.40000000    31.55000000    -0.54000000
   C     61.52000000    31.05000000     1.25000000
   C     62.32000000    30.86000000     2.53000000
   O     63.37000000    31.52000000     2.69000000
   O     61.92000000    30.11000000     3.45000000
   H     62.04000000    33.82000000     2.07000000
   H     60.34000000    32.56000000     2.05000000
   H     62.21000000    30.89000000     0.43000000
   H     60.87000000    30.17000000     1.22000000
   N     59.39000000    33.76000000    -0.31000000
   C     58.54000000    33.91000000    -1.47000000
   C     57.09000000    33.48000000    -1.31000000
   O     56.67000000    33.15000000    -0.20000000
   H     59.78000000    34.58000000     0.15000000
   H     58.96000000    33.29000000    -2.26000000
   H     58.56000000    34.96000000    -1.77000000
   N     56.34000000    33.44000000    -2.41000000
   C     54.99000000    32.93000000    -2.56000000
   C     54.03000000    33.48000000    -1.52000000
   O     53.18000000    32.75000000    -1.03000000
   C     54.95000000    31.41000000    -2.70000000
   C     53.60000000    30.84000000    -3.11000000
   N     52.96000000    30.03000000    -2.26000000
   O     53.04000000    31.16000000    -4.15000000
   H     56.84000000    33.79000000    -3.22000000
   H     54.60000000    33.23000000    -3.53000000
   H     55.18000000    30.93000000    -1.75000000
   H     55.67000000    31.05000000    -3.43000000
   H     53.25000000    29.91000000    -1.30000000
   H     51.99000000    29.77000000    -2.40000000
   N     54.15000000    34.77000000    -1.18000000
   C     53.44000000    35.53000000    -0.18000000
   C     53.94000000    35.42000000     1.25000000
   O     53.21000000    35.61000000     2.22000000
   H     54.99000000    35.20000000    -1.53000000
   H     52.40000000    35.22000000    -0.07000000
   H     53.49000000    36.57000000    -0.50000000
   N     55.22000000    35.05000000     1.42000000
   C     55.92000000    35.21000000     2.68000000
   C     55.41000000    34.45000000     3.89000000
   O     54.98000000    33.30000000     3.76000000
   C     57.37000000    34.84000000     2.40000000
   C     58.37000000    35.76000000     3.10000000
   O     57.64000000    33.46000000     2.54000000
   H     55.75000000    34.91000000     0.58000000
   H     55.88000000    36.25000000     3.03000000
   H     57.56000000    34.89000000     1.33000000
   H     57.13000000    33.02000000     1.86000000
   H     57.91000000    36.72000000     2.87000000
   H     58.50000000    35.51000000     4.15000000
   H     59.29000000    35.72000000     2.51000000
   N     55.54000000    35.06000000     5.07000000
   C     55.42000000    34.35000000     6.33000000
   C     56.45000000    33.25000000     6.55000000
   O     57.55000000    33.26000000     6.00000000
   C     55.43000000    35.38000000     7.45000000
   C     55.04000000    34.73000000     8.77000000
   C     56.79000000    36.08000000     7.52000000
   C     54.68000000    35.67000000     9.92000000
   H     55.90000000    36.00000000     5.08000000
   H     54.43000000    33.91000000     6.20000000
   H     54.70000000    36.14000000     7.18000000
   H     55.85000000    34.12000000     9.18000000
   H     54.15000000    34.14000000     8.55000000
   H     56.75000000    36.97000000     8.15000000
   H     57.60000000    35.40000000     7.78000000
   H     57.02000000    36.42000000     6.51000000
   H     55.60000000    36.12000000    10.28000000
   H     54.04000000    36.46000000     9.52000000
   H     54.20000000    35.11000000    10.72000000
   N     56.10000000    32.23000000     7.33000000
   C     57.06000000    31.23000000     7.74000000
   C     56.58000000    29.80000000     7.94000000
   O     57.34000000    28.97000000     8.44000000
   C     57.89000000    31.74000000     8.91000000
   C     59.39000000    31.63000000     8.70000000
   O     59.84000000    31.13000000     7.65000000
   O     60.17000000    31.96000000     9.62000000
   H     55.26000000    32.26000000     7.89000000
   H     57.75000000    31.11000000     6.90000000
   H     57.53000000    31.32000000     9.85000000
   H     57.72000000    32.82000000     9.00000000
   N     55.33000000    29.45000000     7.61000000
   C     54.63000000    28.18000000     7.74000000
   C     54.54000000    27.64000000     9.16000000
   O     54.75000000    26.43000000     9.24000000
   C     53.24000000    28.38000000     7.14000000
   C     52.28000000    27.22000000     7.17000000
   C     52.66000000    25.98000000     6.64000000
   C     50.93000000    27.31000000     7.51000000
   C     51.80000000    24.89000000     6.50000000
   C     50.06000000    26.21000000     7.49000000
   C     50.48000000    24.99000000     6.96000000
   H     54.68000000    30.17000000     7.33000000
   H     55.23000000    27.48000000     7.16000000
   H     53.21000000    28.85000000     6.15000000
   H     52.69000000    29.06000000     7.80000000
   H     53.65000000    25.82000000     6.23000000
   H     50.47000000    28.23000000     7.85000000
   H     52.16000000    23.93000000     6.15000000
   H     49.00000000    26.28000000     7.69000000
   H     49.74000000    24.24000000     6.72000000
   N     54.03000000    28.25000000    10.23000000
   C     53.71000000    29.66000000    10.36000000
   C     54.54000000    30.45000000    11.35000000
   O     54.40000000    31.67000000    11.48000000
   C     52.27000000    29.65000000    10.88000000
   C     52.28000000    28.48000000    11.85000000
   C     53.29000000    27.52000000    11.24000000
   H     53.70000000    30.19000000     9.40000000
   H     51.96000000    30.58000000    11.35000000
   H     51.57000000    29.40000000    10.08000000
   H     52.68000000    28.82000000    12.81000000
   H     51.33000000    27.97000000    12.07000000
   H     54.04000000    27.13000000    11.94000000
   H     52.80000000    26.66000000    10.79000000
   N     55.49000000    29.75000000    11.96000000
   C     56.18000000    30.18000000    13.16000000
   C     57.40000000    31.06000000    12.89000000
   O     58.38000000    30.60000000    12.31000000
   C     56.61000000    28.97000000    13.98000000
   C     55.57000000    27.97000000    14.47000000
   C     54.59000000    28.46000000    15.53000000
   O     54.87000000    29.44000000    16.24000000
   O     53.49000000    27.89000000    15.72000000
   H     55.52000000    28.75000000    11.81000000
   H     55.53000000    30.77000000    13.81000000
   H     57.28000000    29.21000000    14.81000000
   H     57.25000000    28.34000000    13.35000000
   H     56.11000000    27.15000000    14.94000000
   H     54.99000000    27.64000000    13.62000000
   N     57.34000000    32.29000000    13.39000000
   C     58.20000000    33.41000000    13.07000000
   H     59.14400000    33.04000000    12.67000000
   H     57.71400000    34.04100000    12.32600000
   H     58.39100000    33.99200000    13.97200000
   H     56.44000000    32.55000000    13.78000000
  Ca     61.33000000    30.23000000     5.92000000
   O     60.09000000    32.36000000     4.85000000
   H     59.25000000    32.54000000     5.27000000
   H     60.35000000    33.19000000     4.46000000
   O     63.49000000    31.58000000     5.47000000
   H     63.68000000    31.57000000     4.53000000
   H     64.29000000    31.93000000     5.87000000
   O     59.09000000    29.45000000     4.83000000
   H     59.10000000    28.58000000     4.42000000
   H     58.44000000    29.94000000     4.34000000
   O     62.46000000    30.13000000     8.41000000
   H     63.17000000    29.82000000     8.98000000
   H     61.97000000    30.73000000     8.96000000
   O     59.93000000    28.35000000     7.39000000
   H     59.67000000    27.44000000     7.51000000
   H     59.20000000    28.87000000     7.73000000
   O     63.07000000    28.23000000     5.83000000
   H     63.88000000    28.52000000     5.42000000
   H     62.89000000    27.38000000     5.44000000

Ca 1.00



