%chk=loop2.cluster132.chk
%nprocshared=20
%mem=10GB
%nosave
#b3lyp/svp scf=(tight,noincore,xqc) Test 
#IOP(5/87=12) Density=Current Pop=(MK,readradii) iop(6/33=2) iop(6/42=6)

loop2.cluster132 

   -2  1 
   C     92.82000000    98.76000000    29.81000000
   C     92.76000000   100.05000000    30.63000000
   O     91.72000000   100.69000000    30.72000000
   H     93.86000000    98.52000000    29.58700000
   H     92.37400000    97.94500000    30.38000000
   H     92.27100000    98.89500000    28.87800000
   N     93.85000000   100.50000000    31.25000000
   C     93.96000000   101.79000000    31.91000000
   C     92.99000000   102.06000000    33.06000000
   O     92.73000000   103.21000000    33.39000000
   C     95.38000000   101.95000000    32.44000000
   C     95.70000000   103.30000000    33.05000000
   O     96.22000000   103.27000000    34.19000000
   O     95.75000000   104.26000000    32.24000000
   H     94.67000000    99.91000000    31.21000000
   H     93.72000000   102.55000000    31.18000000
   H     96.15000000   101.83000000    31.67000000
   H     95.48000000   101.27000000    33.29000000
   N     92.43000000   100.99000000    33.63000000
   C     91.41000000   100.94000000    34.66000000
   C     91.46000000    99.63000000    35.42000000
   O     91.53000000    98.58000000    34.79000000
   C     90.10000000   101.37000000    34.01000000
   H     92.71000000   100.08000000    33.28000000
   H     91.76000000   101.73000000    35.33000000
   H     90.14000000   102.36000000    33.55000000
   H     89.92000000   100.68000000    33.19000000
   H     89.35000000   101.41000000    34.81000000
   N     91.29000000    99.57000000    36.75000000
   C     90.96000000   100.68000000    37.62000000
   C     91.78000000   100.45000000    38.88000000
   O     91.96000000    99.32000000    39.32000000
   C     89.46000000   100.54000000    37.89000000
   C     88.78000000   101.75000000    38.51000000
   O     89.24000000   102.91000000    38.46000000
   O     87.70000000   101.43000000    39.04000000
   H     91.50000000    98.68000000    37.17000000
   H     91.20000000   101.68000000    37.26000000
   H     89.31000000    99.69000000    38.57000000
   H     89.04000000   100.24000000    36.94000000
   N     91.92000000   101.47000000    39.73000000
   C     92.68000000   101.38000000    40.96000000
   C     94.14000000   101.12000000    40.63000000
   O     94.70000000   101.63000000    39.66000000
   H     91.60000000   102.38000000    39.43000000
   H     92.29000000   100.56000000    41.58000000
   H     92.50000000   102.23000000    41.62000000
   N     94.93000000   100.47000000    41.49000000
   C     94.55000000    99.96000000    42.79000000
   C     94.05000000    98.53000000    42.66000000
   O     93.88000000    97.77000000    43.61000000
   C     95.78000000   100.12000000    43.68000000
   C     95.57000000    99.78000000    45.14000000
   N     96.74000000    99.68000000    45.78000000
   O     94.51000000    99.58000000    45.74000000
   H     95.79000000   100.11000000    41.10000000
   H     93.77000000   100.55000000    43.26000000
   H     96.04000000   101.18000000    43.69000000
   H     96.63000000    99.52000000    43.33000000
   H     97.60000000    99.84000000    45.28000000
   H     96.76000000    99.42000000    46.76000000
   N     93.61000000    98.08000000    41.48000000
   C     92.82000000    96.87000000    41.33000000
   C     91.37000000    96.95000000    41.77000000
   O     90.92000000    96.04000000    42.47000000
   H     93.65000000    98.75000000    40.73000000
   H     93.33000000    96.03000000    41.81000000
   H     92.80000000    96.69000000    40.26000000
   N     90.69000000    98.07000000    41.50000000
   C     89.40000000    98.41000000    42.04000000
   C     88.25000000    98.14000000    41.08000000
   O     87.50000000    99.05000000    40.74000000
   C     89.44000000    99.87000000    42.49000000
   C     88.29000000   100.10000000    43.46000000
   O     90.57000000   100.12000000    43.29000000
   H     91.26000000    98.71000000    40.96000000
   H     89.33000000    97.90000000    43.01000000
   H     89.36000000   100.57000000    41.66000000
   H     90.60000000   101.03000000    43.60000000
   H     87.37000000    99.79000000    42.97000000
   H     88.32000000    99.44000000    44.33000000
   H     88.16000000   101.13000000    43.80000000
   N     88.15000000    96.94000000    40.49000000
   C     87.11000000    96.52000000    39.57000000
   C     85.90000000    96.01000000    40.35000000
   O     86.12000000    95.34000000    41.36000000
   C     87.65000000    95.48000000    38.59000000
   C     88.27000000    96.00000000    37.29000000
   C     88.54000000    94.45000000    39.27000000
   C     89.62000000    96.70000000    37.44000000
   H     88.81000000    96.24000000    40.79000000
   H     86.74000000    97.39000000    39.03000000
   H     86.75000000    94.94000000    38.30000000
   H     87.61000000    96.78000000    36.91000000
   H     88.43000000    95.21000000    36.55000000
   H     88.78000000    93.69000000    38.53000000
   H     89.53000000    94.85000000    39.50000000
   H     87.99000000    94.07000000    40.13000000
   H     90.01000000    97.18000000    36.54000000
   H     89.49000000    97.44000000    38.22000000
   H     90.34000000    96.00000000    37.85000000
   N     84.69000000    96.39000000    39.94000000
   C     83.47000000    96.03000000    40.64000000
   C     82.48000000    95.27000000    39.77000000
   O     82.14000000    95.71000000    38.68000000
   C     82.75000000    97.23000000    41.25000000
   C     83.59000000    98.20000000    42.07000000
   O     83.15000000    98.28000000    43.24000000
   O     84.57000000    98.84000000    41.65000000
   H     84.61000000    96.96000000    39.12000000
   H     83.75000000    95.38000000    41.47000000
   H     81.94000000    96.83000000    41.84000000
   H     82.45000000    97.82000000    40.38000000
   N     81.99000000    94.10000000    40.18000000
   C     81.01000000    93.29000000    39.48000000
   C     81.49000000    92.98000000    38.08000000
   O     82.63000000    92.55000000    37.91000000
   C     80.70000000    91.97000000    40.19000000
   C     79.67000000    91.06000000    39.57000000
   C     80.09000000    89.85000000    39.00000000
   C     78.32000000    91.42000000    39.57000000
   C     79.14000000    88.97000000    38.48000000
   C     77.39000000    90.60000000    38.94000000
   C     77.80000000    89.37000000    38.40000000
   H     82.29000000    93.97000000    41.13000000
   H     80.16000000    93.97000000    39.46000000
   H     80.35000000    92.20000000    41.20000000
   H     81.62000000    91.38000000    40.21000000
   H     81.12000000    89.53000000    38.99000000
   H     78.02000000    92.35000000    40.04000000
   H     79.51000000    88.05000000    38.05000000
   H     76.32000000    90.75000000    38.94000000
   H     77.05000000    88.72000000    37.96000000
   N     80.58000000    93.14000000    37.12000000
   C     80.92000000    92.94000000    35.72000000
   C     82.11000000    93.76000000    35.24000000
   O     82.75000000    93.37000000    34.27000000
   C     79.62000000    93.12000000    34.95000000
   C     78.54000000    92.82000000    35.99000000
   C     79.18000000    93.51000000    37.20000000
   H     81.35000000    91.94000000    35.68000000
   H     79.54000000    94.15000000    34.60000000
   H     79.71000000    92.43000000    34.12000000
   H     77.54000000    93.23000000    35.88000000
   H     78.47000000    91.75000000    36.18000000
   H     79.13000000    94.59000000    37.18000000
   H     78.68000000    93.29000000    38.15000000
   N     82.63000000    94.79000000    35.91000000
   C     83.84000000    95.49000000    35.55000000
   C     85.06000000    94.57000000    35.57000000
   O     85.95000000    94.69000000    34.73000000
   C     84.07000000    96.66000000    36.51000000
   C     85.07000000    97.68000000    35.98000000
   C     85.37000000    98.83000000    36.93000000
   O     85.06000000    98.80000000    38.14000000
   O     85.91000000    99.88000000    36.51000000
   H     82.31000000    94.89000000    36.87000000
   H     83.63000000    95.89000000    34.56000000
   H     84.38000000    96.43000000    37.53000000
   H     83.12000000    97.20000000    36.55000000
   H     84.80000000    98.04000000    34.99000000
   H     85.97000000    97.17000000    35.64000000
   N     85.13000000    93.52000000    36.39000000
   C     86.08000000    92.43000000    36.27000000
   H     86.99500000    92.68500000    36.80500000
   H     85.65000000    91.52400000    36.69800000
   H     86.31000000    92.26200000    35.21800000
   H     84.40000000    93.40000000    37.08000000
  Ca     85.49000000   100.49800000    39.91000000
   O     82.45000000   100.18800000    39.33000000
   H     82.28000000    99.61800000    38.57000000
   H     81.67000000   100.72800000    39.40000000
   O     84.56000000   102.53800000    38.03000000
   H     84.17000000   101.99800000    37.35000000
   H     84.04000000   103.34800000    38.04000000
   O     86.61000000   102.35800000    41.52000000
   H     86.93000000   102.34800000    42.42000000
   H     87.01000000   103.12800000    41.13000000

Ca 1.00



