%chk=loop3.cluster181.chk
%nprocshared=20
%mem=10GB
%nosave
#b3lyp/svp scf=(tight,noincore,xqc) Test 
#IOP(5/87=12) Density=Current Pop=(MK,readradii) iop(6/33=2) iop(6/42=6)

loop3.cluster181 

   0  1 
   C     83.75000000    76.63000000    23.22000000
   C     85.26000000    76.49000000    23.25000000
   O     85.86000000    75.63000000    23.90000000
   H     83.31800000    76.07800000    24.05500000
   H     83.48000000    77.68300000    23.30300000
   H     83.36600000    76.22800000    22.28200000
   N     85.99000000    77.31000000    22.49000000
   C     87.35000000    76.96000000    22.11000000
   C     88.39000000    77.32000000    23.15000000
   O     88.89000000    76.49000000    23.91000000
   C     87.68000000    77.39000000    20.68000000
   C     87.31000000    78.81000000    20.31000000
   O     86.24000000    79.04000000    19.71000000
   O     88.06000000    79.74000000    20.68000000
   H     85.52000000    77.87000000    21.80000000
   H     87.37000000    75.87000000    22.20000000
   H     87.24000000    76.70000000    19.96000000
   H     88.75000000    77.26000000    20.52000000
   N     88.73000000    78.61000000    23.26000000
   C     89.43000000    79.19000000    24.39000000
   C     90.90000000    78.83000000    24.52000000
   O     91.77000000    79.69000000    24.65000000
   C     89.22000000    80.70000000    24.38000000
   C     89.22000000    81.28000000    25.79000000
   C     88.68000000    82.71000000    25.78000000
   C     88.76000000    83.26000000    27.20000000
   N     88.26000000    84.64000000    27.20000000
   H     88.44000000    79.26000000    22.55000000
   H     88.96000000    78.75000000    25.27000000
   H     88.25000000    80.78000000    23.89000000
   H     89.86000000    81.34000000    23.77000000
   H     90.23000000    81.27000000    26.21000000
   H     88.61000000    80.66000000    26.45000000
   H     87.63000000    82.68000000    25.47000000
   H     89.27000000    83.36000000    25.14000000
   H     89.81000000    83.28000000    27.47000000
   H     88.36000000    82.57000000    27.95000000
   H     88.37000000    85.08000000    28.10000000
   H     88.79000000    85.17000000    26.51000000
   H     87.32000000    84.65000000    26.84000000
   N     91.07000000    77.55000000    24.85000000
   C     92.30000000    76.95000000    25.32000000
   C     92.87000000    75.87000000    24.40000000
   O     93.87000000    75.20000000    24.66000000
   C     92.20000000    76.52000000    26.78000000
   C     91.10000000    75.50000000    27.07000000
   O     91.04000000    75.06000000    28.23000000
   O     90.32000000    75.06000000    26.19000000
   H     90.25000000    76.95000000    24.87000000
   H     93.08000000    77.70000000    25.30000000
   H     92.16000000    77.36000000    27.46000000
   H     93.18000000    76.12000000    27.02000000
   N     92.17000000    75.60000000    23.30000000
   C     92.48000000    74.55000000    22.36000000
   C     93.78000000    74.87000000    21.64000000
   O     94.07000000    75.98000000    21.21000000
   H     91.27000000    76.06000000    23.21000000
   H     91.67000000    74.59000000    21.64000000
   H     92.40000000    73.58000000    22.86000000
   N     94.65000000    73.89000000    21.34000000
   C     94.44000000    72.46000000    21.45000000
   C     93.09000000    71.95000000    20.98000000
   O     92.62000000    72.39000000    19.94000000
   C     95.65000000    71.86000000    20.74000000
   C     95.67000000    70.34000000    20.66000000
   N     95.24000000    69.86000000    19.49000000
   O     96.15000000    69.61000000    21.53000000
   H     95.42000000    74.20000000    20.77000000
   H     94.64000000    72.07000000    22.45000000
   H     96.46000000    72.16000000    21.41000000
   H     95.78000000    72.31000000    19.75000000
   H     95.25000000    70.53000000    18.73000000
   H     95.18000000    68.87000000    19.31000000
   N     92.48000000    70.87000000    21.47000000
   C     92.82000000    69.83000000    22.42000000
   C     92.03000000    69.72000000    23.71000000
   O     90.91000000    70.24000000    23.73000000
   H     91.60000000    70.79000000    20.98000000
   H     93.80000000    70.10000000    22.81000000
   H     92.87000000    68.88000000    21.88000000
   N     92.60000000    69.03000000    24.70000000
   C     91.84000000    68.71000000    25.89000000
   C     92.76000000    68.89000000    27.08000000
   O     93.90000000    68.43000000    27.14000000
   C     91.19000000    67.32000000    25.89000000
   C     90.12000000    67.13000000    24.84000000
   C     88.81000000    67.55000000    25.11000000
   C     90.36000000    66.50000000    23.61000000
   C     87.75000000    67.32000000    24.23000000
   C     89.35000000    66.35000000    22.65000000
   C     88.04000000    66.77000000    22.96000000
   O     87.00000000    66.45000000    22.14000000
   H     93.50000000    68.60000000    24.53000000
   H     91.04000000    69.42000000    26.09000000
   H     90.72000000    67.30000000    26.87000000
   H     91.87000000    66.47000000    25.87000000
   H     88.62000000    68.11000000    26.01000000
   H     91.33000000    66.10000000    23.39000000
   H     86.72000000    67.58000000    24.42000000
   H     89.62000000    65.99000000    21.67000000
   H     87.25000000    66.35000000    21.22000000
   N     92.27000000    69.51000000    28.15000000
   C     92.97000000    69.61000000    29.42000000
   C     92.93000000    68.25000000    30.10000000
   O     93.66000000    68.12000000    31.08000000
   C     92.49000000    70.81000000    30.24000000
   C     91.09000000    70.55000000    30.77000000
   C     93.40000000    71.09000000    31.44000000
   C     90.43000000    71.72000000    31.50000000
   H     91.49000000    70.15000000    28.07000000
   H     94.04000000    69.74000000    29.23000000
   H     92.48000000    71.72000000    29.65000000
   H     91.03000000    69.68000000    31.43000000
   H     90.39000000    70.27000000    29.98000000
   H     94.40000000    71.13000000    31.02000000
   H     93.16000000    72.04000000    31.90000000
   H     93.48000000    70.32000000    32.21000000
   H     90.81000000    71.84000000    32.51000000
   H     90.38000000    72.64000000    30.92000000
   H     89.37000000    71.45000000    31.57000000
   N     92.07000000    67.30000000    29.73000000
   C     92.09000000    65.89000000    30.09000000
   C     90.97000000    65.57000000    31.08000000
   O     90.83000000    64.40000000    31.44000000
   C     91.79000000    65.11000000    28.81000000
   O     92.98000000    65.03000000    28.06000000
   H     91.43000000    67.64000000    29.03000000
   H     93.00000000    65.54000000    30.57000000
   H     91.05000000    65.68000000    28.24000000
   H     91.31000000    64.16000000    29.00000000
   H     92.74000000    64.59000000    27.24000000
   N     90.19000000    66.54000000    31.55000000
   C     89.21000000    66.37000000    32.60000000
   C     88.13000000    67.45000000    32.57000000
   O     88.38000000    68.64000000    32.74000000
   C     89.90000000    66.40000000    33.96000000
   H     90.34000000    67.46000000    31.16000000
   H     88.65000000    65.44000000    32.62000000
   H     89.16000000    66.54000000    34.74000000
   H     90.50000000    65.50000000    34.13000000
   H     90.56000000    67.26000000    33.97000000
   N     86.86000000    67.08000000    32.39000000
   C     85.72000000    67.94000000    32.59000000
   C     85.62000000    69.22000000    31.77000000
   O     84.93000000    70.19000000    32.07000000
   C     85.36000000    68.10000000    34.07000000
   H     86.69000000    66.09000000    32.30000000
   H     84.86000000    67.36000000    32.28000000
   H     85.53000000    67.12000000    34.52000000
   H     85.97000000    68.86000000    34.56000000
   H     84.32000000    68.41000000    34.10000000
   N     86.15000000    69.17000000    30.54000000
   C     85.73000000    70.03000000    29.45000000
   C     84.36000000    69.72000000    28.86000000
   O     83.54000000    70.60000000    28.59000000
   C     86.70000000    69.96000000    28.27000000
   C     88.02000000    70.67000000    28.58000000
   C     87.68000000    72.13000000    28.31000000
   O     88.13000000    72.57000000    27.23000000
   O     87.20000000    72.89000000    29.17000000
   H     86.57000000    68.28000000    30.31000000
   H     85.75000000    71.06000000    29.79000000
   H     86.20000000    70.39000000    27.40000000
   H     86.83000000    68.94000000    27.91000000
   H     88.86000000    70.29000000    28.00000000
   H     88.28000000    70.58000000    29.63000000
   N     84.11000000    68.41000000    28.75000000
   C     82.87000000    67.81000000    28.30000000
   H     82.11600000    68.58700000    28.17300000
   H     83.03500000    67.30500000    27.34800000
   H     82.52500000    67.08800000    29.04000000
   H     84.81000000    67.83000000    29.19000000
  Ca     87.91000000    74.58000000    25.51000000
   O     85.88000000    74.34000000    27.15000000
   H     85.02000000    74.04000000    26.85000000
   H     86.07000000    73.78000000    27.91000000
   O     87.27000000    76.97000000    26.53000000
   H     87.82000000    77.45000000    27.15000000
   H     86.58000000    77.59000000    26.30000000
   O     86.58000000    72.70000000    24.24000000
   H     85.78000000    72.19000000    24.16000000
   H     87.19000000    72.29000000    23.62000000
   O     89.31000000    73.13000000    23.74000000
   H     89.38000000    73.38000000    22.82000000
   H     89.40000000    72.17000000    23.73000000

Ca 1.00



