%chk=loop3.cluster200.chk
%nprocshared=20
%mem=10GB
%nosave
#b3lyp/svp scf=(tight,noincore,xqc) Test 
#IOP(5/87=12) Density=Current Pop=(MK,readradii) iop(6/33=2) iop(6/42=6)

loop3.cluster200 

   0  1 
   C     41.53000000    76.84000000   -20.37000000
   C     41.33000000    75.92000000   -21.56000000
   O     42.10000000    74.99000000   -21.79000000
   H     42.26900000    77.60100000   -20.62000000
   H     40.58500000    77.32100000   -20.11900000
   H     41.88200000    76.26000000   -19.51700000
   N     40.29000000    76.14000000   -22.37000000
   C     40.00000000    75.34000000   -23.54000000
   C     39.04000000    74.21000000   -23.21000000
   O     38.28000000    74.27000000   -22.25000000
   C     39.37000000    76.25000000   -24.58000000
   C     39.38000000    75.72000000   -26.01000000
   O     39.09000000    76.51000000   -26.94000000
   O     39.54000000    74.50000000   -26.18000000
   H     39.54000000    76.71000000   -21.98000000
   H     40.95000000    74.88000000   -23.82000000
   H     39.93000000    77.19000000   -24.53000000
   H     38.33000000    76.49000000   -24.39000000
   N     39.00000000    73.13000000   -24.00000000
   C     38.22000000    71.91000000   -23.90000000
   C     36.73000000    72.08000000   -24.17000000
   O     36.11000000    71.08000000   -24.53000000
   C     38.54000000    71.03000000   -22.71000000
   C     40.01000000    70.65000000   -22.52000000
   C     40.60000000    69.75000000   -23.60000000
   C     42.05000000    69.37000000   -23.31000000
   N     43.01000000    70.45000000   -23.60000000
   H     39.56000000    73.26000000   -24.83000000
   H     38.47000000    71.31000000   -24.78000000
   H     37.91000000    70.14000000   -22.67000000
   H     38.20000000    71.64000000   -21.88000000
   H     40.17000000    70.28000000   -21.50000000
   H     40.49000000    71.63000000   -22.53000000
   H     40.59000000    70.19000000   -24.60000000
   H     39.99000000    68.85000000   -23.59000000
   H     42.35000000    68.49000000   -23.87000000
   H     42.11000000    69.08000000   -22.26000000
   H     43.94000000    70.11000000   -23.41000000
   H     43.09000000    70.63000000   -24.59000000
   H     42.80000000    71.25000000   -23.02000000
   N     36.15000000    73.27000000   -23.99000000
   C     34.77000000    73.56000000   -24.32000000
   C     34.51000000    74.94000000   -24.90000000
   O     34.77000000    75.90000000   -24.18000000
   C     34.04000000    73.45000000   -22.98000000
   C     32.53000000    73.58000000   -23.01000000
   O     31.90000000    74.19000000   -22.11000000
   O     31.87000000    73.01000000   -23.90000000
   H     36.66000000    73.97000000   -23.47000000
   H     34.51000000    72.80000000   -25.06000000
   H     34.52000000    74.16000000   -22.31000000
   H     34.26000000    72.46000000   -22.57000000
   N     33.91000000    75.03000000   -26.09000000
   C     33.49000000    76.30000000   -26.63000000
   C     32.00000000    76.57000000   -26.43000000
   O     31.14000000    75.81000000   -26.86000000
   H     33.72000000    74.18000000   -26.60000000
   H     33.69000000    76.24000000   -27.70000000
   H     34.10000000    77.14000000   -26.30000000
   N     31.71000000    77.69000000   -25.76000000
   C     30.40000000    78.18000000   -25.38000000
   C     29.96000000    79.38000000   -26.21000000
   O     28.79000000    79.72000000   -26.11000000
   C     30.31000000    78.44000000   -23.88000000
   C     30.69000000    77.23000000   -23.03000000
   N     31.95000000    76.97000000   -22.69000000
   O     29.84000000    76.36000000   -22.87000000
   H     32.48000000    78.24000000   -25.41000000
   H     29.70000000    77.41000000   -25.68000000
   H     29.36000000    78.84000000   -23.51000000
   H     31.05000000    79.20000000   -23.60000000
   H     32.70000000    77.61000000   -22.90000000
   H     32.20000000    76.08000000   -22.28000000
   N     30.77000000    79.99000000   -27.08000000
   C     30.49000000    81.24000000   -27.74000000
   C     30.32000000    82.49000000   -26.89000000
   O     30.79000000    82.51000000   -25.75000000
   H     31.75000000    79.74000000   -27.11000000
   H     29.62000000    81.24000000   -28.40000000
   H     31.34000000    81.43000000   -28.41000000
   N     29.50000000    83.42000000   -27.39000000
   C     28.96000000    84.53000000   -26.62000000
   C     28.23000000    84.17000000   -25.33000000
   O     27.56000000    85.02000000   -24.76000000
   C     30.08000000    85.53000000   -26.40000000
   C     30.79000000    85.99000000   -27.65000000
   C     32.17000000    85.75000000   -27.77000000
   C     30.14000000    86.74000000   -28.64000000
   C     32.89000000    86.18000000   -28.88000000
   C     30.86000000    87.27000000   -29.72000000
   C     32.23000000    86.96000000   -29.85000000
   O     32.87000000    87.44000000   -30.95000000
   H     29.09000000    83.25000000   -28.29000000
   H     28.19000000    85.00000000   -27.24000000
   H     30.79000000    85.11000000   -25.68000000
   H     29.62000000    86.41000000   -25.96000000
   H     32.70000000    85.25000000   -26.97000000
   H     29.08000000    86.91000000   -28.58000000
   H     33.91000000    85.85000000   -29.05000000
   H     30.47000000    87.96000000   -30.45000000
   H     32.29000000    88.06000000   -31.40000000
   N     28.39000000    82.94000000   -24.82000000
   C     27.79000000    82.52000000   -23.57000000
   C     26.27000000    82.40000000   -23.60000000
   O     25.79000000    81.31000000   -23.31000000
   C     28.28000000    83.31000000   -22.36000000
   C     29.78000000    83.60000000   -22.39000000
   C     27.89000000    82.53000000   -21.11000000
   C     30.35000000    84.07000000   -21.06000000
   H     28.99000000    82.22000000   -25.19000000
   H     28.10000000    81.48000000   -23.51000000
   H     27.74000000    84.26000000   -22.35000000
   H     29.98000000    84.38000000   -23.12000000
   H     30.31000000    82.66000000   -22.55000000
   H     28.50000000    81.63000000   -21.03000000
   H     27.94000000    83.21000000   -20.26000000
   H     26.86000000    82.20000000   -21.07000000
   H     31.41000000    84.18000000   -21.27000000
   H     29.89000000    85.01000000   -20.74000000
   H     30.15000000    83.34000000   -20.27000000
   N     25.45000000    83.35000000   -24.04000000
   C     24.04000000    83.28000000   -24.38000000
   C     23.27000000    83.05000000   -23.08000000
   O     22.18000000    82.49000000   -23.16000000
   C     23.47000000    84.48000000   -25.14000000
   O     24.11000000    85.68000000   -24.77000000
   H     25.91000000    84.25000000   -24.12000000
   H     23.84000000    82.33000000   -24.87000000
   H     22.42000000    84.57000000   -24.87000000
   H     23.57000000    84.36000000   -26.21000000
   H     24.13000000    86.22000000   -25.57000000
   N     23.78000000    83.47000000   -21.93000000
   C     23.35000000    83.15000000   -20.58000000
   C     23.37000000    81.67000000   -20.26000000
   O     22.85000000    81.26000000   -19.22000000
   C     22.14000000    84.01000000   -20.22000000
   H     24.54000000    84.14000000   -21.97000000
   H     24.20000000    83.51000000   -20.00000000
   H     22.21000000    85.09000000   -20.36000000
   H     21.25000000    83.84000000   -20.83000000
   H     21.91000000    83.89000000   -19.16000000
   N     23.84000000    80.83000000   -21.18000000
   C     23.65000000    79.40000000   -21.06000000
   C     24.62000000    78.78000000   -20.06000000
   O     25.59000000    79.44000000   -19.69000000
   C     23.74000000    78.70000000   -22.41000000
   H     24.35000000    81.19000000   -21.98000000
   H     22.67000000    79.31000000   -20.57000000
   H     24.74000000    78.64000000   -22.82000000
   H     23.36000000    77.68000000   -22.34000000
   H     23.13000000    79.31000000   -23.09000000
   N     24.34000000    77.53000000   -19.67000000
   C     25.19000000    76.73000000   -18.81000000
   C     25.73000000    77.41000000   -17.56000000
   O     26.86000000    77.25000000   -17.11000000
   C     26.34000000    76.14000000   -19.62000000
   C     25.85000000    75.19000000   -20.71000000
   C     27.04000000    74.59000000   -21.45000000
   O     28.14000000    74.28000000   -20.95000000
   O     26.91000000    74.43000000   -22.69000000
   H     23.44000000    77.15000000   -19.93000000
   H     24.63000000    75.90000000   -18.38000000
   H     26.94000000    75.58000000   -18.90000000
   H     26.90000000    76.98000000   -20.01000000
   H     25.24000000    75.82000000   -21.35000000
   H     25.17000000    74.44000000   -20.30000000
   N     24.94000000    78.28000000   -16.93000000
   C     25.43000000    79.34000000   -16.07000000
   H     26.33700000    79.76600000   -16.50000000
   H     24.67100000    80.11700000   -15.98100000
   H     25.65200000    78.93400000   -15.08300000
   H     24.01000000    78.45000000   -17.29000000
  Ca     29.46000000    73.55000000   -23.22000000
   O     29.45000000    73.74000000   -25.83000000
   H     29.89000000    74.26000000   -26.50000000
   H     29.35000000    72.87000000   -26.21000000
   O     28.27000000    71.56000000   -24.17000000
   H     27.44000000    71.18000000   -23.88000000
   H     28.33000000    71.31000000   -25.09000000
   O     29.87000000    71.63000000   -21.45000000
   H     30.66000000    71.09000000   -21.45000000
   H     29.25000000    71.15000000   -20.91000000

Ca 1.00



