%chk=loop1.cluster63.chk
%nprocshared=20
%mem=10GB
%nosave
#b3lyp/svp scf=(tight,noincore,xqc) Test 
#IOP(5/87=12) Density=Current Pop=(MK,readradii) iop(6/33=2) iop(6/42=6)

loop1.cluster63 

   0  1 
   C     66.34000000    48.62000000    21.71000000
   C     67.27000000    48.17000000    20.60000000
   O     67.21000000    47.03000000    20.13000000
   H     65.37800000    48.11900000    21.60300000
   H     66.77600000    48.36500000    22.67600000
   H     66.19600000    49.69900000    21.64900000
   N     68.20000000    49.07000000    20.27000000
   C     69.34000000    48.78000000    19.43000000
   C     70.41000000    48.01000000    20.20000000
   O     71.31000000    48.57000000    20.82000000
   C     69.90000000    50.08000000    18.88000000
   C     71.21000000    49.95000000    18.11000000
   O     72.20000000    50.69000000    18.28000000
   O     71.28000000    48.95000000    17.36000000
   H     68.22000000    49.88000000    20.87000000
   H     68.95000000    48.25000000    18.56000000
   H     70.15000000    50.78000000    19.68000000
   H     69.14000000    50.53000000    18.25000000
   N     70.29000000    46.68000000    20.12000000
   C     71.04000000    45.80000000    20.99000000
   C     72.40000000    45.49000000    20.41000000
   O     73.41000000    45.59000000    21.11000000
   C     70.30000000    44.50000000    21.29000000
   C     69.06000000    44.61000000    22.18000000
   C     68.53000000    43.21000000    22.47000000
   C     67.51000000    43.05000000    23.60000000
   N     66.38000000    43.99000000    23.48000000
   H     69.45000000    46.36000000    19.66000000
   H     71.15000000    46.13000000    22.03000000
   H     71.01000000    43.90000000    21.86000000
   H     70.04000000    43.91000000    20.41000000
   H     68.31000000    45.23000000    21.70000000
   H     69.24000000    45.12000000    23.13000000
   H     69.43000000    42.62000000    22.70000000
   H     68.17000000    42.80000000    21.53000000
   H     68.02000000    43.23000000    24.55000000
   H     67.15000000    42.02000000    23.59000000
   H     65.57000000    43.56000000    23.89000000
   H     66.60000000    44.85000000    23.96000000
   H     66.12000000    44.15000000    22.52000000
   N     72.45000000    45.27000000    19.09000000
   C     73.71000000    45.07000000    18.41000000
   C     74.42000000    46.36000000    18.06000000
   O     75.63000000    46.31000000    17.82000000
   C     73.57000000    44.13000000    17.22000000
   C     72.53000000    44.44000000    16.15000000
   O     72.04000000    43.52000000    15.46000000
   O     72.10000000    45.61000000    16.06000000
   H     71.59000000    44.98000000    18.63000000
   H     74.37000000    44.59000000    19.14000000
   H     73.34000000    43.15000000    17.64000000
   H     74.54000000    44.12000000    16.73000000
   N     73.87000000    47.56000000    18.26000000
   C     74.65000000    48.77000000    18.45000000
   C     75.12000000    49.45000000    17.17000000
   O     75.91000000    50.39000000    17.20000000
   H     72.88000000    47.67000000    18.13000000
   H     75.57000000    48.49000000    18.95000000
   H     74.04000000    49.51000000    18.97000000
   N     74.64000000    49.01000000    16.01000000
   C     74.86000000    49.61000000    14.71000000
   C     74.29000000    51.01000000    14.56000000
   O     74.42000000    51.60000000    13.49000000
   C     74.39000000    48.66000000    13.62000000
   C     73.01000000    48.03000000    13.78000000
   O     72.16000000    48.62000000    14.48000000
   O     72.73000000    47.13000000    12.95000000
   H     74.01000000    48.23000000    16.15000000
   H     75.94000000    49.69000000    14.55000000
   H     75.12000000    47.87000000    13.71000000
   H     74.59000000    49.13000000    12.66000000
   N     73.60000000    51.47000000    15.61000000
   C     72.90000000    52.74000000    15.50000000
   C     71.44000000    52.78000000    15.08000000
   O     70.89000000    53.86000000    14.91000000
   H     73.44000000    50.85000000    16.39000000
   H     73.48000000    53.48000000    14.95000000
   H     72.90000000    53.14000000    16.51000000
   N     70.82000000    51.62000000    14.85000000
   C     69.46000000    51.42000000    14.37000000
   C     68.52000000    50.51000000    15.14000000
   O     69.04000000    49.60000000    15.79000000
   C     69.54000000    50.84000000    12.96000000
   C     70.24000000    51.77000000    11.97000000
   O     70.08000000    49.54000000    13.00000000
   H     71.37000000    50.81000000    15.08000000
   H     68.97000000    52.39000000    14.28000000
   H     68.50000000    50.62000000    12.71000000
   H     70.99000000    49.60000000    13.30000000
   H     69.79000000    52.75000000    11.88000000
   H     71.29000000    51.95000000    12.20000000
   H     70.25000000    51.28000000    10.99000000
   N     67.22000000    50.78000000    15.03000000
   C     66.25000000    49.90000000    15.63000000
   C     65.54000000    49.20000000    14.48000000
   O     64.79000000    49.86000000    13.76000000
   C     65.26000000    50.59000000    16.56000000
   C     66.03000000    51.18000000    17.74000000
   C     64.28000000    49.58000000    17.15000000
   C     65.21000000    52.13000000    18.60000000
   H     66.86000000    51.62000000    14.59000000
   H     66.69000000    49.10000000    16.22000000
   H     64.78000000    51.39000000    15.98000000
   H     66.84000000    51.81000000    17.37000000
   H     66.44000000    50.37000000    18.35000000
   H     64.84000000    48.80000000    17.66000000
   H     63.52000000    50.07000000    17.76000000
   H     63.84000000    49.06000000    16.30000000
   H     64.73000000    52.95000000    18.06000000
   H     64.35000000    51.64000000    19.05000000
   H     65.86000000    52.50000000    19.40000000
   N     65.54000000    47.87000000    14.35000000
   C     64.68000000    47.15000000    13.43000000
   C     63.26000000    46.89000000    13.91000000
   O     63.00000000    47.06000000    15.10000000
   C     65.39000000    45.88000000    12.96000000
   C     66.85000000    46.06000000    12.56000000
   O     65.28000000    44.94000000    14.01000000
   H     65.98000000    47.33000000    15.08000000
   H     64.61000000    47.78000000    12.54000000
   H     64.79000000    45.44000000    12.17000000
   H     66.00000000    44.32000000    13.90000000
   H     67.15000000    45.14000000    12.07000000
   H     66.89000000    46.92000000    11.89000000
   H     67.53000000    46.34000000    13.37000000
   N     62.39000000    46.40000000    13.03000000
   C     61.16000000    45.73000000    13.40000000
   C     61.37000000    44.47000000    14.22000000
   O     60.41000000    44.12000000    14.91000000
   C     60.29000000    45.53000000    12.16000000
   C     59.82000000    46.83000000    11.53000000
   O     61.04000000    44.76000000    11.25000000
   H     62.83000000    46.33000000    12.13000000
   H     60.64000000    46.47000000    14.00000000
   H     59.49000000    44.87000000    12.51000000
   H     60.89000000    43.84000000    11.50000000
   H     59.06000000    46.59000000    10.79000000
   H     59.37000000    47.49000000    12.28000000
   H     60.69000000    47.26000000    11.03000000
   N     62.51000000    43.77000000    14.16000000
   C     62.74000000    42.57000000    14.93000000
   C     63.32000000    42.85000000    16.31000000
   O     63.08000000    42.07000000    17.23000000
   C     63.66000000    41.69000000    14.08000000
   C     63.86000000    40.29000000    14.65000000
   C     64.89000000    39.45000000    13.90000000
   C     65.08000000    38.08000000    14.56000000
   N     66.38000000    37.45000000    14.31000000
   H     63.19000000    44.18000000    13.55000000
   H     61.73000000    42.16000000    15.03000000
   H     64.64000000    42.14000000    13.91000000
   H     63.28000000    41.56000000    13.07000000
   H     62.91000000    39.78000000    14.45000000
   H     64.10000000    40.23000000    15.71000000
   H     65.81000000    40.03000000    13.98000000
   H     64.52000000    39.29000000    12.89000000
   H     64.36000000    37.29000000    14.37000000
   H     65.10000000    38.30000000    15.63000000
   H     66.56000000    37.46000000    13.32000000
   H     67.13000000    37.94000000    14.77000000
   H     66.13000000    36.53000000    14.65000000
   N     63.93000000    44.02000000    16.48000000
   C     64.42000000    44.56000000    17.73000000
   C     63.34000000    45.24000000    18.57000000
   O     63.27000000    45.12000000    19.79000000
   C     65.53000000    45.58000000    17.50000000
   C     66.91000000    44.96000000    17.33000000
   C     67.99000000    45.97000000    16.95000000
   O     67.82000000    46.80000000    16.03000000
   O     69.14000000    45.87000000    17.42000000
   H     64.29000000    44.44000000    15.64000000
   H     64.79000000    43.84000000    18.46000000
   H     65.65000000    46.15000000    18.42000000
   H     65.18000000    46.15000000    16.64000000
   H     66.77000000    44.17000000    16.59000000
   H     67.28000000    44.50000000    18.25000000
   N     62.49000000    45.98000000    17.86000000
   C     61.36000000    46.64000000    18.48000000
   H     60.49800000    45.97300000    18.46500000
   H     61.60700000    46.89200000    19.51200000
   H     61.12400000    47.55100000    17.93000000
   H     62.58000000    46.06000000    16.86000000
  Ca     70.28000000    47.39000000    15.61000000
   O     70.28000000    46.07000000    13.24000000
   H     70.11000000    45.66000000    12.39000000
   H     71.19000000    46.36000000    13.19000000

Ca 1.00



