%chk=loop3.cluster36.chk
%nprocshared=20
%mem=10GB
%nosave
#b3lyp/svp scf=(tight,noincore,xqc) Test 
#IOP(5/87=12) Density=Current Pop=(MK,readradii) iop(6/33=2) iop(6/42=6)

loop3.cluster36 

   0  1 
   C     51.14000000    46.39000000    44.05000000
   C     50.54000000    46.49000000    45.45000000
   O     51.20000000    45.94000000    46.33000000
   H     52.15800000    46.00700000    44.11800000
   H     50.53800000    45.71400000    43.44300000
   H     51.15400000    47.37800000    43.58900000
   N     49.39000000    47.14000000    45.61000000
   C     48.89000000    47.29000000    46.97000000
   C     48.24000000    46.00000000    47.44000000
   O     47.12000000    45.69000000    47.04000000
   C     48.00000000    48.52000000    46.88000000
   C     47.34000000    48.91000000    48.20000000
   O     46.44000000    49.78000000    48.25000000
   O     47.81000000    48.36000000    49.22000000
   H     48.98000000    47.69000000    44.88000000
   H     49.74000000    47.57000000    47.59000000
   H     47.22000000    48.28000000    46.16000000
   H     48.60000000    49.33000000    46.47000000
   N     48.92000000    45.27000000    48.32000000
   C     48.55000000    43.92000000    48.67000000
   C     47.36000000    43.63000000    49.57000000
   O     46.80000000    42.54000000    49.58000000
   C     49.83000000    43.25000000    49.18000000
   C     50.96000000    43.27000000    48.15000000
   C     50.72000000    42.64000000    46.79000000
   C     50.42000000    41.14000000    46.74000000
   N     49.53000000    40.73000000    45.65000000
   H     49.77000000    45.61000000    48.76000000
   H     48.32000000    43.40000000    47.74000000
   H     49.66000000    42.18000000    49.34000000
   H     50.04000000    43.67000000    50.16000000
   H     51.84000000    42.88000000    48.65000000
   H     51.22000000    44.32000000    48.02000000
   H     51.58000000    42.90000000    46.16000000
   H     49.98000000    43.21000000    46.23000000
   H     49.95000000    40.87000000    47.68000000
   H     51.39000000    40.64000000    46.74000000
   H     48.64000000    41.20000000    45.62000000
   H     49.91000000    40.96000000    44.74000000
   H     49.22000000    39.77000000    45.78000000
   N     46.80000000    44.64000000    50.24000000
   C     45.52000000    44.60000000    50.92000000
   C     44.50000000    45.56000000    50.33000000
   O     43.30000000    45.56000000    50.60000000
   C     45.74000000    45.09000000    52.35000000
   C     46.46000000    46.40000000    52.62000000
   O     47.23000000    46.88000000    51.75000000
   O     46.27000000    46.96000000    53.72000000
   H     47.24000000    45.54000000    50.12000000
   H     45.16000000    43.58000000    51.00000000
   H     46.28000000    44.27000000    52.82000000
   H     44.84000000    45.20000000    52.96000000
   N     44.89000000    46.39000000    49.35000000
   C     44.16000000    47.37000000    48.58000000
   C     43.65000000    48.59000000    49.33000000
   O     42.64000000    49.18000000    48.95000000
   H     45.89000000    46.36000000    49.18000000
   H     43.32000000    46.89000000    48.06000000
   H     44.81000000    47.70000000    47.77000000
   N     44.40000000    49.05000000    50.34000000
   C     43.98000000    50.10000000    51.25000000
   C     44.30000000    51.51000000    50.80000000
   O     43.81000000    52.44000000    51.44000000
   C     44.56000000    49.85000000    52.63000000
   C     45.99000000    50.35000000    52.74000000
   N     46.21000000    51.09000000    53.83000000
   O     46.94000000    50.12000000    51.99000000
   H     45.31000000    48.64000000    50.52000000
   H     42.89000000    50.01000000    51.31000000
   H     44.41000000    48.79000000    52.87000000
   H     44.05000000    50.39000000    53.43000000
   H     45.38000000    51.25000000    54.37000000
   H     47.11000000    51.40000000    54.16000000
   N     45.02000000    51.66000000    49.68000000
   C     45.39000000    52.88000000    49.00000000
   C     46.87000000    53.24000000    49.01000000
   O     47.17000000    54.27000000    48.41000000
   H     45.40000000    50.78000000    49.35000000
   H     44.80000000    53.70000000    49.42000000
   H     45.01000000    52.81000000    47.99000000
   N     47.77000000    52.54000000    49.71000000
   C     49.18000000    52.88000000    49.66000000
   C     50.09000000    51.68000000    49.46000000
   O     49.67000000    50.61000000    49.89000000
   C     49.59000000    53.43000000    51.02000000
   C     48.81000000    54.63000000    51.50000000
   C     49.32000000    55.93000000    51.35000000
   C     47.70000000    54.45000000    52.34000000
   C     48.73000000    57.00000000    52.03000000
   C     47.10000000    55.52000000    53.00000000
   C     47.60000000    56.83000000    52.85000000
   O     47.02000000    57.96000000    53.34000000
   H     47.48000000    51.65000000    50.09000000
   H     49.29000000    53.61000000    48.86000000
   H     50.64000000    53.70000000    50.94000000
   H     49.53000000    52.63000000    51.76000000
   H     50.28000000    56.06000000    50.89000000
   H     47.30000000    53.47000000    52.54000000
   H     49.19000000    57.98000000    52.02000000
   H     46.19000000    55.35000000    53.57000000
   H     46.18000000    57.74000000    53.75000000
   N     51.19000000    51.88000000    48.73000000
   C     52.26000000    50.91000000    48.63000000
   C     53.27000000    51.22000000    49.72000000
   O     53.71000000    52.36000000    49.82000000
   C     52.87000000    50.90000000    47.23000000
   C     51.87000000    50.60000000    46.11000000
   C     54.05000000    49.94000000    47.18000000
   C     52.22000000    51.27000000    44.78000000
   H     51.22000000    52.81000000    48.33000000
   H     51.86000000    49.92000000    48.86000000
   H     53.15000000    51.93000000    47.03000000
   H     50.86000000    50.87000000    46.39000000
   H     51.84000000    49.52000000    46.05000000
   H     54.89000000    50.31000000    47.77000000
   H     53.85000000    48.93000000    47.55000000
   H     54.48000000    50.03000000    46.18000000
   H     53.17000000    50.83000000    44.46000000
   H     51.43000000    51.15000000    44.05000000
   H     52.60000000    52.29000000    44.80000000
   N     53.55000000    50.19000000    50.54000000
   C     54.69000000    50.19000000    51.43000000
   C     55.81000000    49.37000000    50.81000000
   O     55.59000000    48.78000000    49.76000000
   C     54.32000000    49.65000000    52.82000000
   O     54.01000000    48.28000000    52.67000000
   H     53.26000000    49.25000000    50.31000000
   H     55.11000000    51.17000000    51.65000000
   H     53.49000000    50.17000000    53.30000000
   H     55.13000000    49.72000000    53.54000000
   H     53.15000000    48.20000000    52.26000000
   N     56.99000000    49.43000000    51.43000000
   C     58.20000000    48.88000000    50.85000000
   C     58.14000000    47.39000000    50.52000000
   O     58.28000000    46.98000000    49.37000000
   C     59.32000000    49.09000000    51.86000000
   H     57.12000000    50.01000000    52.24000000
   H     58.51000000    49.43000000    49.96000000
   H     59.39000000    48.30000000    52.60000000
   H     60.19000000    48.88000000    51.24000000
   H     59.38000000    50.05000000    52.37000000
   N     57.65000000    46.53000000    51.42000000
   C     57.38000000    45.12000000    51.20000000
   C     56.39000000    44.71000000    50.12000000
   O     56.47000000    43.62000000    49.56000000
   C     56.78000000    44.69000000    52.54000000
   H     57.36000000    46.78000000    52.35000000
   H     58.22000000    44.44000000    51.09000000
   H     55.87000000    45.25000000    52.77000000
   H     56.59000000    43.63000000    52.40000000
   H     57.53000000    44.77000000    53.33000000
   N     55.49000000    45.62000000    49.73000000
   C     54.51000000    45.54000000    48.67000000
   C     55.10000000    45.92000000    47.32000000
   O     54.63000000    45.45000000    46.29000000
   C     53.32000000    46.41000000    49.08000000
   C     52.66000000    45.91000000    50.36000000
   C     51.47000000    46.80000000    50.69000000
   O     50.32000000    46.31000000    50.59000000
   O     51.66000000    47.95000000    51.14000000
   H     55.46000000    46.52000000    50.19000000
   H     54.20000000    44.50000000    48.55000000
   H     52.62000000    46.21000000    48.26000000
   H     53.70000000    47.42000000    49.22000000
   H     53.41000000    45.93000000    51.15000000
   H     52.42000000    44.86000000    50.21000000
   N     56.11000000    46.80000000    47.33000000
   C     56.89000000    47.06000000    46.14000000
   H     57.87800000    46.61300000    46.24900000
   H     56.38900000    46.62700000    45.27500000
   H     56.99300000    48.13600000    46.00000000
   H     56.30000000    47.33000000    48.17000000
  Ca     49.11000000    48.53000000    51.60000000
   O     50.15000000    50.49000000    53.07000000
   H     50.77000000    50.16000000    53.72000000
   H     49.58000000    51.07000000    53.57000000
   O     50.44000000    47.32000000    53.49000000
   H     50.33000000    47.37000000    54.44000000
   H     51.38000000    47.20000000    53.36000000

Ca 1.00



