%chk=loop1.cluster48.chk
%nprocshared=20
%mem=10GB
%nosave
#b3lyp/svp scf=(tight,noincore,xqc) Test 
#IOP(5/87=12) Density=Current Pop=(MK,readradii) iop(6/33=2) iop(6/42=6)

loop1.cluster48 

   0  1 
   C     38.59000000    41.22000000    41.58000000
   C     39.65000000    41.62000000    40.56000000
   O     40.20000000    40.78000000    39.85000000
   H     37.66700000    40.96100000    41.06100000
   H     38.94000000    40.35900000    42.15000000
   H     38.40400000    42.05400000    42.25700000
   N     40.02000000    42.91000000    40.60000000
   C     40.94000000    43.72000000    39.83000000
   C     40.91000000    43.31000000    38.36000000
   O     41.90000000    42.89000000    37.78000000
   C     42.30000000    43.59000000    40.50000000
   C     43.34000000    44.42000000    39.75000000
   O     43.02000000    45.55000000    39.33000000
   O     44.46000000    43.94000000    39.46000000
   H     39.55000000    43.49000000    41.28000000
   H     40.59000000    44.75000000    39.97000000
   H     42.57000000    42.55000000    40.66000000
   H     42.15000000    43.95000000    41.52000000
   N     39.71000000    43.35000000    37.77000000
   C     39.49000000    42.84000000    36.43000000
   C     39.56000000    43.90000000    35.34000000
   O     39.42000000    43.48000000    34.19000000
   C     38.13000000    42.16000000    36.47000000
   C     38.01000000    41.00000000    37.46000000
   C     36.75000000    40.17000000    37.24000000
   C     35.59000000    41.02000000    37.77000000
   N     34.31000000    40.31000000    37.67000000
   H     38.94000000    43.74000000    38.29000000
   H     40.14000000    42.00000000    36.19000000
   H     37.89000000    41.84000000    35.45000000
   H     37.41000000    42.93000000    36.74000000
   H     38.10000000    41.27000000    38.51000000
   H     38.81000000    40.32000000    37.14000000
   H     36.93000000    39.29000000    37.85000000
   H     36.50000000    39.93000000    36.21000000
   H     35.51000000    41.98000000    37.26000000
   H     35.82000000    41.19000000    38.83000000
   H     34.31000000    39.44000000    38.18000000
   H     33.62000000    40.93000000    38.08000000
   H     34.02000000    40.15000000    36.71000000
   N     39.63000000    45.19000000    35.68000000
   C     39.20000000    46.18000000    34.72000000
   C     40.03000000    47.46000000    34.61000000
   O     39.67000000    48.35000000    33.85000000
   C     37.73000000    46.45000000    35.03000000
   C     37.15000000    47.30000000    33.91000000
   O     36.89000000    48.44000000    34.35000000
   O     36.82000000    46.93000000    32.76000000
   H     39.46000000    45.51000000    36.62000000
   H     39.22000000    45.80000000    33.70000000
   H     37.75000000    47.02000000    35.96000000
   H     37.22000000    45.49000000    35.06000000
   N     41.10000000    47.61000000    35.40000000
   C     42.14000000    48.61000000    35.32000000
   C     41.85000000    50.03000000    35.77000000
   O     42.62000000    50.69000000    36.46000000
   H     41.33000000    46.93000000    36.10000000
   H     42.52000000    48.62000000    34.29000000
   H     43.00000000    48.33000000    35.92000000
   N     40.62000000    50.51000000    35.57000000
   C     40.20000000    51.80000000    36.07000000
   C     39.81000000    51.81000000    37.54000000
   O     39.44000000    50.82000000    38.17000000
   C     39.23000000    52.57000000    35.18000000
   C     39.55000000    52.58000000    33.69000000
   O     40.01000000    53.65000000    33.24000000
   O     39.23000000    51.65000000    32.92000000
   H     40.01000000    49.90000000    35.03000000
   H     41.06000000    52.47000000    36.07000000
   H     39.26000000    53.60000000    35.54000000
   H     38.23000000    52.13000000    35.25000000
   N     40.00000000    52.97000000    38.17000000
   C     39.46000000    53.32000000    39.46000000
   C     40.16000000    52.78000000    40.70000000
   O     40.97000000    53.49000000    41.30000000
   H     40.48000000    53.66000000    37.61000000
   H     38.47000000    52.86000000    39.52000000
   H     39.31000000    54.40000000    39.54000000
   N     40.00000000    51.47000000    40.91000000
   C     40.38000000    50.87000000    42.17000000
   C     39.46000000    51.18000000    43.34000000
   O     38.26000000    51.41000000    43.18000000
   C     40.71000000    49.40000000    41.95000000
   C     39.41000000    48.65000000    41.65000000
   O     41.57000000    49.22000000    40.84000000
   H     39.39000000    51.01000000    40.25000000
   H     41.30000000    51.41000000    42.40000000
   H     41.24000000    48.95000000    42.79000000
   H     42.12000000    48.45000000    41.03000000
   H     38.91000000    48.47000000    42.60000000
   H     38.72000000    49.22000000    41.03000000
   H     39.63000000    47.69000000    41.19000000
   N     39.94000000    51.21000000    44.59000000
   C     39.35000000    51.58000000    45.86000000
   C     40.13000000    52.58000000    46.71000000
   O     39.60000000    53.09000000    47.69000000
   C     38.88000000    50.38000000    46.68000000
   C     40.02000000    49.40000000    46.92000000
   C     37.82000000    49.68000000    45.83000000
   C     39.73000000    48.35000000    47.99000000
   H     40.90000000    50.91000000    44.65000000
   H     38.42000000    52.05000000    45.54000000
   H     38.36000000    50.75000000    47.56000000
   H     40.90000000    49.97000000    47.23000000
   H     40.31000000    48.86000000    46.02000000
   H     38.27000000    49.09000000    45.04000000
   H     37.24000000    49.05000000    46.50000000
   H     37.16000000    50.43000000    45.39000000
   H     40.50000000    47.58000000    48.06000000
   H     39.57000000    48.78000000    48.98000000
   H     38.81000000    47.82000000    47.76000000
   N     41.34000000    52.96000000    46.28000000
   C     42.30000000    53.79000000    46.97000000
   C     43.59000000    53.00000000    47.18000000
   O     43.79000000    51.97000000    46.53000000
   C     42.55000000    55.11000000    46.26000000
   C     43.40000000    55.07000000    44.99000000
   O     41.37000000    55.72000000    45.79000000
   H     41.76000000    52.39000000    45.56000000
   H     41.95000000    53.84000000    48.00000000
   H     43.15000000    55.77000000    46.89000000
   H     41.40000000    55.55000000    44.84000000
   H     44.34000000    54.59000000    45.27000000
   H     42.93000000    54.44000000    44.23000000
   H     43.48000000    56.09000000    44.61000000
   N     44.34000000    53.41000000    48.20000000
   C     45.60000000    52.82000000    48.61000000
   C     45.53000000    52.38000000    50.06000000
   O     45.54000000    51.18000000    50.32000000
   C     46.72000000    53.79000000    48.24000000
   C     48.12000000    53.27000000    48.55000000
   O     46.71000000    55.02000000    48.92000000
   H     44.11000000    54.28000000    48.66000000
   H     45.82000000    51.91000000    48.05000000
   H     46.63000000    53.88000000    47.16000000
   H     47.36000000    55.67000000    48.61000000
   H     48.92000000    53.97000000    48.28000000
   H     48.24000000    53.09000000    49.61000000
   H     48.42000000    52.36000000    48.02000000
   N     45.37000000    53.33000000    50.98000000
   C     45.30000000    53.15000000    52.42000000
   C     44.48000000    54.21000000    53.15000000
   O     44.06000000    55.19000000    52.54000000
   C     46.72000000    53.02000000    52.96000000
   C     47.62000000    54.22000000    52.73000000
   C     47.27000000    55.41000000    53.62000000
   C     48.38000000    56.45000000    53.66000000
   N     48.06000000    57.40000000    54.74000000
   H     45.30000000    54.28000000    50.62000000
   H     44.76000000    52.21000000    52.59000000
   H     47.22000000    52.19000000    52.45000000
   H     46.56000000    52.70000000    53.99000000
   H     47.68000000    54.44000000    51.67000000
   H     48.59000000    53.87000000    53.09000000
   H     47.28000000    54.88000000    54.58000000
   H     46.40000000    55.98000000    53.30000000
   H     48.53000000    56.95000000    52.70000000
   H     49.36000000    56.04000000    53.92000000
   H     47.78000000    58.27000000    54.32000000
   H     47.34000000    57.01000000    55.33000000
   H     48.86000000    57.60000000    55.32000000
   N     44.20000000    53.96000000    54.43000000
   C     43.57000000    54.91000000    55.32000000
   C     42.13000000    55.36000000    55.13000000
   O     41.79000000    56.42000000    55.65000000
   C     43.58000000    54.45000000    56.77000000
   C     44.96000000    54.33000000    57.42000000
   C     45.68000000    55.67000000    57.52000000
   O     46.69000000    56.02000000    56.87000000
   O     45.33000000    56.53000000    58.35000000
   H     44.55000000    53.10000000    54.83000000
   H     44.19000000    55.81000000    55.31000000
   H     42.99000000    53.55000000    56.92000000
   H     43.11000000    55.23000000    57.38000000
   H     45.67000000    53.78000000    56.79000000
   H     44.82000000    53.87000000    58.40000000
   N     41.18000000    54.78000000    54.39000000
   C     41.23000000    53.51000000    53.70000000
   H     42.26800000    53.25300000    53.48800000
   H     40.78600000    52.73700000    54.32700000
   H     40.67600000    53.58200000    52.76400000
   H     40.28000000    55.23000000    54.49000000
  Ca     40.47000000    49.74000000    31.42000000
   O     39.03000000    50.51000000    29.03000000
   H     38.37000000    49.84000000    28.87000000
   H     38.73000000    51.27000000    28.53000000
   O     42.20000000    49.71000000    29.40000000
   H     42.21000000    50.41000000    28.75000000
   H     43.13000000    49.59000000    29.63000000
   O     42.00000000    47.58000000    31.51000000
   H     41.77000000    46.73000000    31.12000000
   H     42.94000000    47.51000000    31.70000000
   O     39.81000000    47.63000000    29.68000000
   H     39.84000000    47.63000000    28.72000000
   H     39.38000000    46.80000000    29.90000000
   O     41.07000000    52.44000000    30.90000000
   H     40.43000000    52.89000000    31.46000000
   H     41.92000000    52.67000000    31.28000000
   O     42.74000000    50.69000000    32.88000000
   H     43.04000000    51.51000000    32.49000000
   H     43.52000000    50.32000000    33.30000000
   O     37.92000000    49.25000000    31.59000000
   H     37.48000000    48.51000000    32.00000000
   H     37.58000000    50.02000000    32.05000000

Ca 1.00



