%chk=loop4.cluster21.chk
%nprocshared=20
%mem=10GB
%nosave
#b3lyp/svp scf=(tight,noincore,xqc) Test 
#IOP(5/87=12) Density=Current Pop=(MK,readradii) iop(6/33=2) iop(6/42=6)

loop4.cluster21 

   -3  1 
   C     45.41000000    38.71000000    43.89000000
   C     44.99000000    38.66000000    45.35000000
   O     45.51000000    39.30000000    46.26000000
   H     46.44300000    38.37300000    43.79800000
   H     44.76300000    38.05900000    43.30300000
   H     45.32800000    39.73300000    43.52200000
   N     43.95000000    37.86000000    45.59000000
   C     43.34000000    37.46000000    46.84000000
   C     42.52000000    38.53000000    47.55000000
   O     42.89000000    38.85000000    48.68000000
   C     44.29000000    36.67000000    47.73000000
   C     45.12000000    35.59000000    47.04000000
   O     46.35000000    35.76000000    46.88000000
   O     44.60000000    34.50000000    46.72000000
   H     43.42000000    37.62000000    44.76000000
   H     42.56000000    36.73000000    46.62000000
   H     43.84000000    36.32000000    48.66000000
   H     45.09000000    37.31000000    48.09000000
   N     41.51000000    39.13000000    46.91000000
   C     40.71000000    40.21000000    47.45000000
   C     39.43000000    39.64000000    48.05000000
   O     38.62000000    38.92000000    47.48000000
   C     40.49000000    41.22000000    46.32000000
   C     41.82000000    41.79000000    45.86000000
   C     39.51000000    42.29000000    46.78000000
   C     41.71000000    42.71000000    44.64000000
   H     41.22000000    38.91000000    45.97000000
   H     41.33000000    40.69000000    48.21000000
   H     40.08000000    40.64000000    45.49000000
   H     42.59000000    41.07000000    45.57000000
   H     42.30000000    42.32000000    46.68000000
   H     38.58000000    41.89000000    47.18000000
   H     40.05000000    43.07000000    47.32000000
   H     39.23000000    42.81000000    45.86000000
   H     41.13000000    42.30000000    43.82000000
   H     41.22000000    43.63000000    44.95000000
   H     42.71000000    43.00000000    44.33000000
   N     39.11000000    39.96000000    49.30000000
   C     39.59000000    41.05000000    50.12000000
   C     40.78000000    40.64000000    50.97000000
   O     41.73000000    41.42000000    51.07000000
   C     38.47000000    41.71000000    50.92000000
   C     37.15000000    41.88000000    50.19000000
   O     36.17000000    41.22000000    50.61000000
   O     37.06000000    42.51000000    49.11000000
   H     38.31000000    39.44000000    49.65000000
   H     39.93000000    41.72000000    49.33000000
   H     38.91000000    42.67000000    51.20000000
   H     38.25000000    41.10000000    51.80000000
   N     40.86000000    39.43000000    51.54000000
   C     41.84000000    38.85000000    52.44000000
   C     41.88000000    39.35000000    53.88000000
   O     41.05000000    40.08000000    54.41000000
   H     40.07000000    38.84000000    51.35000000
   H     42.85000000    38.92000000    52.06000000
   H     41.62000000    37.80000000    52.61000000
   N     42.97000000    38.96000000    54.54000000
   C     43.33000000    39.30000000    55.91000000
   C     43.95000000    40.69000000    55.94000000
   O     44.27000000    41.19000000    57.01000000
   C     44.22000000    38.21000000    56.50000000
   C     44.37000000    38.28000000    58.01000000
   O     45.46000000    37.93000000    58.52000000
   O     43.49000000    38.74000000    58.77000000
   H     43.52000000    38.22000000    54.13000000
   H     42.34000000    39.31000000    56.37000000
   H     45.22000000    38.37000000    56.09000000
   H     43.83000000    37.24000000    56.20000000
   N     44.06000000    41.38000000    54.80000000
   C     44.70000000    42.66000000    54.60000000
   C     46.20000000    42.74000000    54.86000000
   O     46.77000000    43.83000000    54.79000000
   H     43.88000000    40.87000000    53.94000000
   H     44.26000000    43.52000000    55.12000000
   H     44.64000000    42.90000000    53.54000000
   N     46.85000000    41.60000000    55.05000000
   C     48.29000000    41.44000000    55.01000000
   C     48.94000000    42.00000000    53.75000000
   O     49.93000000    42.73000000    53.81000000
   C     48.85000000    41.99000000    56.32000000
   C     48.40000000    41.56000000    57.71000000
   C     49.20000000    42.18000000    58.85000000
   N     48.99000000    41.76000000    60.10000000
   O     49.97000000    43.13000000    58.68000000
   H     46.32000000    40.75000000    54.96000000
   H     48.49000000    40.36000000    55.04000000
   H     48.81000000    43.08000000    56.22000000
   H     49.91000000    41.79000000    56.41000000
   H     48.47000000    40.48000000    57.71000000
   H     47.34000000    41.77000000    57.82000000
   H     48.47000000    40.93000000    60.33000000
   H     49.30000000    42.41000000    60.82000000
   N     48.45000000    41.54000000    52.60000000
   C     49.15000000    41.77000000    51.35000000
   C     50.37000000    40.90000000    51.09000000
   O     50.34000000    39.70000000    51.32000000
   C     48.28000000    41.71000000    50.09000000
   C     47.38000000    40.49000000    49.93000000
   C     47.45000000    42.96000000    49.81000000
   H     47.62000000    40.97000000    52.66000000
   H     49.60000000    42.76000000    51.38000000
   H     49.00000000    41.67000000    49.27000000
   H     48.02000000    39.62000000    50.06000000
   H     46.54000000    40.70000000    50.59000000
   H     47.08000000    40.45000000    48.88000000
   H     46.82000000    43.21000000    50.66000000
   H     48.14000000    43.80000000    49.68000000
   H     46.80000000    42.87000000    48.94000000
   N     51.42000000    41.48000000    50.50000000
   C     52.79000000    41.03000000    50.36000000
   C     53.21000000    40.73000000    48.93000000
   O     52.51000000    41.12000000    47.99000000
   C     53.70000000    42.05000000    51.04000000
   C     55.18000000    41.69000000    51.02000000
   N     56.03000000    42.58000000    50.50000000
   O     55.49000000    40.60000000    51.49000000
   H     51.32000000    42.46000000    50.28000000
   H     52.85000000    40.07000000    50.87000000
   H     53.44000000    42.22000000    52.09000000
   H     53.58000000    43.00000000    50.51000000
   H     55.67000000    43.31000000    49.91000000
   H     57.03000000    42.49000000    50.55000000
   N     54.25000000    39.93000000    48.70000000
   C     54.85000000    39.62000000    47.42000000
   C     54.99000000    38.12000000    47.25000000
   O     55.61000000    37.49000000    48.10000000
   C     56.13000000    40.45000000    47.34000000
   C     56.95000000    40.43000000    46.07000000
   C     56.80000000    41.49000000    45.17000000
   C     57.84000000    39.39000000    45.79000000
   C     57.52000000    41.63000000    43.98000000
   C     58.52000000    39.46000000    44.56000000
   C     58.39000000    40.56000000    43.68000000
   O     59.21000000    40.59000000    42.59000000
   H     54.71000000    39.71000000    49.57000000
   H     54.19000000    39.95000000    46.61000000
   H     56.82000000    40.02000000    48.06000000
   H     56.02000000    41.48000000    47.66000000
   H     56.16000000    42.31000000    45.47000000
   H     58.02000000    38.56000000    46.46000000
   H     57.48000000    42.49000000    43.33000000
   H     59.19000000    38.67000000    44.26000000
   H     59.70000000    39.79000000    42.42000000
   N     54.70000000    37.57000000    46.07000000
   C     54.96000000    36.21000000    45.65000000
   C     54.89000000    35.98000000    44.15000000
   O     55.92000000    35.60000000    43.59000000
   C     54.06000000    35.26000000    46.43000000
   C     54.30000000    33.76000000    46.32000000
   C     55.52000000    33.35000000    47.14000000
   O     55.43000000    33.39000000    48.38000000
   O     56.61000000    33.28000000    46.54000000
   H     54.54000000    38.26000000    45.35000000
   H     55.99000000    36.03000000    45.95000000
   H     53.02000000    35.45000000    46.15000000
   H     54.22000000    35.53000000    47.48000000
   H     54.42000000    33.36000000    45.32000000
   H     53.45000000    33.19000000    46.72000000
   N     53.79000000    36.16000000    43.41000000
   C     52.70000000    37.02000000    43.81000000
   C     53.01000000    38.45000000    43.40000000
   O     54.07000000    39.00000000    43.66000000
   C     51.45000000    36.46000000    43.13000000
   C     51.12000000    35.16000000    43.86000000
   C     49.73000000    34.59000000    43.57000000
   O     48.87000000    34.60000000    44.47000000
   O     49.47000000    34.18000000    42.42000000
   H     53.74000000    35.62000000    42.55000000
   H     52.50000000    37.06000000    44.89000000
   H     51.48000000    36.30000000    42.05000000
   H     50.64000000    37.15000000    43.35000000
   H     51.22000000    35.36000000    44.92000000
   H     51.77000000    34.36000000    43.53000000
   N     52.15000000    39.09000000    42.60000000
   C     52.45000000    40.20000000    41.72000000
   H     53.46500000    40.09400000    41.33600000
   H     51.74600000    40.20500000    40.88800000
   H     52.36700000    41.13600000    42.27300000
   H     51.30000000    38.60000000    42.36000000
  Ca     46.74000000    33.63000000    45.18000000
   O     46.99000000    30.75000000    45.79000000
   H     46.77000000    30.32000000    44.96000000
   H     46.54000000    30.23000000    46.46000000
   O     47.43000000    32.58000000    42.83000000
   H     47.22000000    32.02000000    42.09000000
   H     48.13000000    33.15000000    42.51000000
   O     47.56000000    32.92000000    47.66000000
   H     47.01000000    32.24000000    48.05000000
   H     48.39000000    32.86000000    48.13000000
   O     44.73000000    32.07000000    44.64000000
   H     43.96000000    31.83000000    45.16000000
   H     44.74000000    31.44000000    43.92000000

Ca 1.00



