%chk=loop4.cluster32.chk
%nprocshared=20
%mem=10GB
%nosave
#b3lyp/svp scf=(tight,noincore,xqc) Test 
#IOP(5/87=12) Density=Current Pop=(MK,readradii) iop(6/33=2) iop(6/42=6)

loop4.cluster32 

   -3  1 
   C     55.53000000    56.06000000    45.24000000
   C     54.68000000    56.56000000    46.40000000
   O     53.78000000    57.36000000    46.15000000
   H     56.50900000    55.75700000    45.61200000
   H     55.04000000    55.20700000    44.77100000
   H     55.65100000    56.85800000    44.50700000
   N     55.08000000    56.30000000    47.65000000
   C     54.55000000    56.99000000    48.81000000
   C     55.11000000    58.40000000    48.90000000
   O     56.31000000    58.66000000    48.98000000
   C     54.77000000    56.08000000    50.01000000
   C     54.33000000    56.71000000    51.33000000
   O     53.49000000    57.64000000    51.38000000
   O     54.95000000    56.31000000    52.34000000
   H     55.87000000    55.69000000    47.75000000
   H     53.47000000    57.05000000    48.64000000
   H     55.83000000    55.89000000    50.17000000
   H     54.30000000    55.10000000    49.92000000
   N     54.19000000    59.37000000    48.88000000
   C     54.47000000    60.80000000    48.89000000
   C     54.54000000    61.43000000    50.27000000
   O     55.29000000    62.37000000    50.50000000
   C     53.41000000    61.41000000    47.98000000
   C     53.69000000    61.11000000    46.51000000
   C     53.43000000    62.92000000    48.20000000
   C     52.86000000    61.78000000    45.42000000
   H     53.23000000    59.08000000    48.77000000
   H     55.49000000    60.94000000    48.51000000
   H     52.43000000    61.06000000    48.30000000
   H     53.59000000    60.04000000    46.32000000
   H     54.76000000    61.28000000    46.36000000
   H     54.44000000    63.32000000    48.06000000
   H     52.71000000    63.34000000    47.50000000
   H     53.13000000    63.15000000    49.21000000
   H     53.08000000    62.84000000    45.36000000
   H     53.16000000    61.40000000    44.44000000
   H     51.81000000    61.61000000    45.66000000
   N     53.84000000    60.86000000    51.26000000
   C     53.70000000    61.39000000    52.60000000
   C     54.32000000    60.54000000    53.70000000
   O     54.19000000    60.85000000    54.88000000
   C     52.20000000    61.61000000    52.80000000
   C     51.32000000    60.41000000    52.49000000
   O     50.88000000    59.60000000    53.34000000
   O     50.94000000    60.31000000    51.30000000
   H     53.43000000    59.96000000    51.11000000
   H     54.08000000    62.41000000    52.67000000
   H     51.88000000    62.39000000    52.12000000
   H     51.98000000    62.11000000    53.74000000
   N     54.96000000    59.42000000    53.38000000
   C     55.83000000    58.75000000    54.32000000
   C     55.14000000    57.71000000    55.20000000
   O     55.87000000    57.00000000    55.88000000
   H     55.05000000    59.09000000    52.43000000
   H     56.28000000    59.44000000    55.04000000
   H     56.63000000    58.23000000    53.81000000
   N     53.80000000    57.68000000    55.20000000
   C     53.09000000    56.67000000    55.95000000
   C     53.35000000    55.23000000    55.54000000
   O     53.01000000    54.33000000    56.30000000
   C     51.59000000    56.91000000    56.05000000
   C     50.73000000    56.63000000    54.83000000
   O     49.50000000    56.76000000    54.94000000
   O     51.19000000    56.54000000    53.66000000
   H     53.31000000    58.27000000    54.54000000
   H     53.54000000    56.63000000    56.95000000
   H     51.41000000    57.91000000    56.44000000
   H     51.22000000    56.15000000    56.74000000
   N     53.98000000    54.90000000    54.41000000
   C     54.34000000    53.55000000    54.02000000
   C     53.20000000    52.80000000    53.35000000
   O     53.20000000    51.57000000    53.32000000
   H     54.45000000    55.57000000    53.81000000
   H     54.71000000    52.96000000    54.86000000
   H     55.15000000    53.60000000    53.29000000
   N     52.20000000    53.56000000    52.88000000
   C     51.10000000    53.04000000    52.10000000
   C     50.92000000    53.81000000    50.80000000
   O     50.95000000    55.04000000    50.76000000
   C     49.81000000    53.23000000    52.90000000
   C     49.99000000    52.72000000    54.33000000
   C     48.68000000    52.84000000    55.09000000
   N     48.36000000    54.02000000    55.61000000
   O     47.92000000    51.90000000    55.33000000
   H     52.34000000    54.56000000    52.95000000
   H     51.25000000    51.98000000    51.90000000
   H     49.02000000    52.66000000    52.40000000
   H     49.55000000    54.28000000    52.86000000
   H     50.74000000    53.29000000    54.87000000
   H     50.30000000    51.67000000    54.31000000
   H     49.03000000    54.72000000    55.33000000
   H     47.42000000    54.24000000    55.91000000
   N     50.77000000    53.10000000    49.68000000
   C     50.53000000    53.66000000    48.37000000
   C     49.03000000    53.65000000    48.12000000
   O     48.57000000    52.52000000    47.96000000
   C     51.32000000    52.80000000    47.39000000
   C     50.87000000    53.12000000    45.97000000
   C     52.83000000    52.89000000    47.56000000
   H     50.83000000    52.09000000    49.73000000
   H     50.90000000    54.69000000    48.33000000
   H     51.05000000    51.76000000    47.60000000
   H     50.79000000    54.20000000    45.94000000
   H     51.64000000    52.96000000    45.21000000
   H     49.93000000    52.61000000    45.77000000
   H     53.12000000    52.59000000    48.57000000
   H     53.44000000    52.36000000    46.83000000
   H     53.10000000    53.94000000    47.42000000
   N     48.28000000    54.75000000    48.25000000
   C     46.91000000    54.77000000    47.78000000
   C     46.82000000    54.95000000    46.27000000
   O     47.79000000    55.26000000    45.58000000
   C     46.14000000    55.83000000    48.56000000
   C     45.92000000    57.17000000    47.87000000
   N     46.95000000    58.02000000    47.91000000
   O     44.96000000    57.31000000    47.11000000
   H     48.71000000    55.60000000    48.59000000
   H     46.43000000    53.84000000    48.07000000
   H     46.66000000    56.04000000    49.50000000
   H     45.17000000    55.44000000    48.86000000
   H     47.79000000    57.84000000    48.42000000
   H     46.75000000    58.94000000    47.54000000
   N     45.62000000    54.73000000    45.74000000
   C     45.34000000    54.82000000    44.32000000
   C     45.74000000    56.12000000    43.64000000
   O     46.14000000    56.16000000    42.48000000
   C     43.86000000    54.57000000    44.09000000
   C     43.37000000    54.65000000    42.66000000
   C     43.81000000    53.70000000    41.73000000
   C     42.62000000    55.75000000    42.23000000
   C     43.39000000    53.75000000    40.40000000
   C     42.25000000    55.83000000    40.88000000
   C     42.61000000    54.83000000    39.96000000
   O     42.07000000    54.85000000    38.71000000
   H     44.82000000    54.64000000    46.36000000
   H     45.96000000    54.01000000    43.92000000
   H     43.25000000    55.27000000    44.67000000
   H     43.63000000    53.57000000    44.47000000
   H     44.41000000    52.88000000    42.11000000
   H     42.35000000    56.47000000    42.98000000
   H     43.75000000    53.00000000    39.70000000
   H     41.60000000    56.63000000    40.55000000
   H     41.84000000    55.75000000    38.46000000
   N     45.69000000    57.24000000    44.36000000
   C     46.10000000    58.57000000    43.96000000
   C     47.60000000    58.82000000    43.91000000
   O     48.09000000    59.63000000    43.13000000
   C     45.25000000    59.60000000    44.71000000
   C     43.79000000    59.59000000    44.27000000
   C     42.96000000    60.56000000    45.10000000
   O     42.33000000    60.09000000    46.07000000
   O     43.03000000    61.79000000    44.86000000
   H     45.49000000    57.09000000    45.34000000
   H     45.73000000    58.61000000    42.94000000
   H     45.61000000    60.61000000    44.50000000
   H     45.30000000    59.38000000    45.78000000
   H     43.36000000    58.60000000    44.38000000
   H     43.72000000    59.98000000    43.26000000
   N     48.42000000    58.01000000    44.58000000
   C     49.86000000    57.91000000    44.46000000
   C     50.36000000    56.89000000    43.45000000
   O     51.41000000    57.09000000    42.84000000
   C     50.38000000    57.66000000    45.88000000
   C     50.19000000    58.78000000    46.90000000
   C     50.45000000    58.25000000    48.30000000
   O     51.48000000    58.54000000    48.95000000
   O     49.65000000    57.59000000    48.99000000
   H     48.02000000    57.49000000    45.35000000
   H     50.15000000    58.93000000    44.20000000
   H     51.45000000    57.46000000    45.90000000
   H     49.90000000    56.77000000    46.29000000
   H     49.22000000    59.24000000    46.76000000
   H     50.95000000    59.51000000    46.63000000
   N     49.52000000    55.89000000    43.16000000
   C     49.88000000    54.99000000    42.08000000
   H     50.89900000    54.63200000    42.23000000
   H     49.19500000    54.14200000    42.07000000
   H     49.81800000    55.51900000    41.12900000
   H     48.59000000    55.82000000    43.54000000
  Ca     50.91000000    57.70000000    51.28000000
   O     48.52000000    57.42000000    52.38000000
   H     48.63000000    57.22000000    53.31000000
   H     47.70000000    57.91000000    52.34000000

Ca 1.00



