%chk=loop4.cluster90.chk
%nprocshared=20
%mem=10GB
%nosave
#b3lyp/svp scf=(tight,noincore,xqc) Test 
#IOP(5/87=12) Density=Current Pop=(MK,readradii) iop(6/33=2) iop(6/42=6)

loop4.cluster90 

   -3  1 
   C     63.84000000    22.36000000    61.87000000
   C     64.05000000    21.88000000    63.30000000
   O     64.17000000    22.71000000    64.21000000
   H     63.12700000    23.18500000    61.86500000
   H     64.79000000    22.69900000    61.45700000
   H     63.45100000    21.54100000    61.26500000
   N     64.04000000    20.56000000    63.44000000
   C     64.12000000    19.97000000    64.76000000
   C     63.21000000    20.52000000    65.85000000
   O     63.69000000    20.83000000    66.94000000
   C     65.59000000    20.00000000    65.16000000
   C     66.63000000    19.41000000    64.22000000
   O     67.84000000    19.34000000    64.55000000
   O     66.33000000    19.15000000    63.03000000
   H     64.01000000    20.01000000    62.59000000
   H     63.84000000    18.93000000    64.60000000
   H     65.60000000    19.39000000    66.07000000
   H     65.93000000    20.98000000    65.49000000
   N     61.93000000    20.72000000    65.53000000
   C     60.93000000    21.18000000    66.47000000
   C     60.36000000    19.99000000    67.22000000
   O     59.93000000    19.10000000    66.49000000
   C     59.84000000    22.02000000    65.81000000
   C     60.36000000    23.30000000    65.17000000
   C     58.67000000    22.34000000    66.74000000
   C     59.41000000    23.72000000    64.05000000
   H     61.55000000    20.42000000    64.64000000
   H     61.50000000    21.78000000    67.18000000
   H     59.47000000    21.38000000    65.01000000
   H     61.28000000    23.00000000    64.66000000
   H     60.41000000    24.17000000    65.83000000
   H     58.19000000    21.43000000    67.09000000
   H     58.88000000    22.87000000    67.66000000
   H     57.97000000    22.94000000    66.16000000
   H     59.38000000    22.87000000    63.38000000
   H     58.38000000    23.87000000    64.38000000
   H     59.80000000    24.59000000    63.52000000
   N     60.48000000    19.78000000    68.53000000
   C     60.57000000    20.81000000    69.55000000
   C     61.71000000    20.67000000    70.55000000
   O     62.18000000    21.72000000    70.98000000
   C     59.22000000    20.85000000    70.24000000
   C     58.57000000    19.51000000    70.54000000
   O     57.33000000    19.39000000    70.67000000
   O     59.27000000    18.50000000    70.77000000
   H     60.22000000    18.88000000    68.93000000
   H     60.66000000    21.81000000    69.14000000
   H     58.53000000    21.47000000    69.66000000
   H     59.33000000    21.37000000    71.20000000
   N     62.27000000    19.53000000    70.96000000
   C     63.39000000    19.39000000    71.86000000
   C     63.11000000    20.05000000    73.20000000
   O     62.20000000    19.65000000    73.94000000
   H     61.84000000    18.70000000    70.57000000
   H     64.26000000    19.91000000    71.44000000
   H     63.62000000    18.32000000    71.95000000
   N     63.88000000    21.09000000    73.51000000
   C     63.78000000    21.97000000    74.65000000
   C     63.36000000    23.41000000    74.35000000
   O     63.21000000    24.24000000    75.25000000
   C     65.14000000    21.89000000    75.33000000
   C     65.31000000    22.20000000    76.81000000
   O     66.46000000    22.34000000    77.26000000
   O     64.31000000    22.21000000    77.57000000
   H     64.66000000    21.22000000    72.88000000
   H     62.96000000    21.58000000    75.26000000
   H     65.89000000    22.42000000    74.74000000
   H     65.39000000    20.83000000    75.21000000
   N     63.08000000    23.70000000    73.08000000
   C     63.04000000    25.03000000    72.51000000
   C     64.12000000    26.05000000    72.85000000
   O     63.80000000    27.22000000    72.99000000
   H     63.07000000    22.90000000    72.47000000
   H     62.08000000    25.49000000    72.74000000
   H     63.00000000    24.78000000    71.45000000
   N     65.35000000    25.56000000    73.04000000
   C     66.59000000    26.22000000    73.40000000
   C     66.98000000    27.38000000    72.50000000
   O     67.56000000    28.35000000    72.98000000
   C     66.44000000    26.66000000    74.85000000
   C     66.41000000    25.53000000    75.87000000
   C     66.47000000    25.96000000    77.33000000
   N     66.69000000    25.00000000    78.23000000
   O     66.30000000    27.13000000    77.67000000
   H     65.42000000    24.57000000    72.83000000
   H     67.39000000    25.48000000    73.27000000
   H     65.65000000    27.40000000    74.97000000
   H     67.37000000    27.20000000    75.04000000
   H     67.20000000    24.84000000    75.58000000
   H     65.55000000    24.86000000    75.78000000
   H     66.57000000    24.06000000    77.89000000
   H     66.57000000    25.16000000    79.22000000
   N     66.77000000    27.46000000    71.18000000
   C     67.01000000    28.59000000    70.31000000
   C     68.48000000    28.62000000    69.93000000
   O     68.96000000    27.60000000    69.45000000
   C     66.12000000    28.63000000    69.07000000
   C     64.69000000    29.00000000    69.44000000
   C     66.51000000    29.58000000    67.93000000
   H     66.33000000    26.70000000    70.68000000
   H     66.72000000    29.47000000    70.88000000
   H     66.12000000    27.68000000    68.54000000
   H     64.23000000    28.34000000    70.17000000
   H     64.67000000    29.99000000    69.88000000
   H     64.04000000    29.02000000    68.56000000
   H     66.82000000    30.53000000    68.37000000
   H     67.30000000    29.11000000    67.34000000
   H     65.58000000    29.82000000    67.43000000
   N     69.07000000    29.78000000    70.22000000
   C     70.42000000    30.08000000    69.78000000
   C     70.43000000    30.13000000    68.26000000
   O     69.53000000    30.62000000    67.58000000
   C     70.79000000    31.40000000    70.45000000
   C     72.13000000    31.89000000    69.91000000
   N     73.24000000    31.47000000    70.53000000
   O     72.16000000    32.58000000    68.90000000
   H     68.50000000    30.50000000    70.64000000
   H     71.07000000    29.25000000    70.08000000
   H     71.03000000    31.11000000    71.47000000
   H     70.09000000    32.19000000    70.19000000
   H     73.22000000    30.88000000    71.35000000
   H     74.16000000    31.71000000    70.19000000
   N     71.58000000    29.74000000    67.71000000
   C     71.82000000    29.71000000    66.28000000
   C     72.45000000    28.40000000    65.84000000
   O     73.19000000    27.78000000    66.60000000
   C     72.59000000    30.96000000    65.85000000
   C     72.98000000    31.01000000    64.39000000
   C     71.97000000    31.28000000    63.46000000
   C     74.28000000    30.77000000    63.94000000
   C     72.17000000    31.25000000    62.08000000
   C     74.53000000    30.73000000    62.56000000
   C     73.49000000    30.98000000    61.65000000
   O     73.79000000    31.02000000    60.32000000
   H     72.40000000    29.76000000    68.31000000
   H     70.87000000    29.78000000    65.74000000
   H     73.47000000    31.16000000    66.47000000
   H     71.95000000    31.84000000    65.92000000
   H     70.97000000    31.47000000    63.81000000
   H     75.05000000    30.65000000    64.68000000
   H     71.43000000    31.56000000    61.36000000
   H     75.52000000    30.51000000    62.21000000
   H     74.57000000    30.52000000    60.09000000
   N     72.30000000    28.00000000    64.57000000
   C     73.19000000    27.03000000    63.95000000
   C     73.36000000    27.25000000    62.45000000
   O     74.49000000    27.58000000    62.10000000
   C     72.75000000    25.62000000    64.31000000
   C     73.67000000    24.54000000    63.76000000
   C     73.22000000    23.12000000    64.07000000
   O     73.53000000    22.61000000    65.16000000
   O     72.69000000    22.45000000    63.15000000
   H     71.64000000    28.54000000    64.03000000
   H     74.19000000    27.16000000    64.36000000
   H     71.75000000    25.43000000    63.90000000
   H     72.74000000    25.53000000    65.40000000
   H     74.68000000    24.72000000    64.15000000
   H     73.73000000    24.68000000    62.68000000
   N     72.39000000    27.20000000    61.54000000
   C     70.97000000    26.95000000    61.62000000
   C     70.21000000    27.94000000    60.74000000
   O     70.86000000    28.63000000    59.97000000
   C     70.59000000    25.53000000    61.21000000
   C     70.64000000    25.32000000    59.70000000
   C     70.30000000    23.89000000    59.30000000
   O     69.42000000    23.27000000    59.94000000
   O     70.89000000    23.38000000    58.33000000
   H     72.63000000    27.58000000    60.63000000
   H     70.58000000    27.04000000    62.64000000
   H     69.57000000    25.32000000    61.53000000
   H     71.22000000    24.82000000    61.73000000
   H     71.62000000    25.64000000    59.36000000
   H     70.01000000    26.02000000    59.15000000
   N     68.89000000    28.06000000    60.85000000
   C     67.93000000    28.81000000    60.06000000
   H     67.05300000    29.03200000    60.66900000
   H     68.38400000    29.74300000    59.72500000
   H     67.63100000    28.21900000    59.19400000
   H     68.47000000    27.50000000    61.59000000
  Ca     69.02000000    19.44000000    62.18000000
   O     70.74000000    21.26000000    61.87000000
   H     70.35000000    22.03000000    61.45000000
   H     71.57000000    21.59000000    62.22000000
   O     67.60000000    17.94000000    60.50000000
   H     66.74000000    17.59000000    60.73000000
   H     67.61000000    17.94000000    59.54000000
   O     68.53000000    16.92000000    63.17000000
   H     67.68000000    17.09000000    63.59000000
   H     68.97000000    16.32000000    63.77000000
   O     71.33000000    18.92000000    63.71000000
   H     72.16000000    19.36000000    63.89000000
   H     71.55000000    17.99000000    63.70000000
   O     68.18000000    21.83000000    63.05000000
   H     67.62000000    22.54000000    62.74000000
   H     68.45000000    22.10000000    63.93000000
   O     70.87000000    18.01000000    60.81000000
   H     71.03000000    17.62000000    59.95000000
   H     71.75000000    18.11000000    61.19000000
   O     68.74000000    20.70000000    59.97000000
   H     68.55000000    21.63000000    60.05000000
   H     68.55000000    20.50000000    59.05000000

Ca 1.00



