%chk=loop4.cluster157.chk
%nprocshared=20
%mem=10GB
%nosave
#b3lyp/svp scf=(tight,noincore,xqc) Test 
#IOP(5/87=12) Density=Current Pop=(MK,readradii) iop(6/33=2) iop(6/42=6)

loop4.cluster157 

   -3  1 
   C     82.72000000    21.80000000    60.40000000
   C     83.88000000    20.89000000    60.78000000
   O     85.04000000    21.29000000    60.81000000
   H     81.88100000    21.61800000    61.07200000
   H     83.03200000    22.84100000    60.48200000
   H     82.41500000    21.59200000    59.37500000
   N     83.62000000    19.63000000    61.13000000
   C     84.57000000    18.71000000    61.74000000
   C     85.25000000    19.21000000    63.01000000
   O     86.48000000    19.24000000    63.02000000
   C     85.52000000    18.05000000    60.75000000
   C     85.01000000    17.45000000    59.44000000
   O     85.88000000    16.90000000    58.73000000
   O     83.81000000    17.47000000    59.10000000
   H     82.70000000    19.25000000    60.98000000
   H     83.98000000    17.89000000    62.16000000
   H     86.01000000    17.22000000    61.25000000
   H     86.31000000    18.75000000    60.49000000
   N     84.55000000    19.78000000    63.99000000
   C     85.12000000    20.42000000    65.15000000
   C     84.62000000    19.66000000    66.38000000
   O     83.41000000    19.60000000    66.59000000
   C     84.74000000    21.89000000    65.23000000
   C     85.57000000    22.62000000    64.17000000
   C     84.93000000    22.50000000    66.62000000
   C     85.41000000    24.12000000    63.99000000
   H     83.55000000    19.84000000    63.85000000
   H     86.21000000    20.45000000    65.18000000
   H     83.69000000    22.05000000    64.99000000
   H     85.35000000    22.14000000    63.22000000
   H     86.62000000    22.40000000    64.35000000
   H     85.93000000    22.27000000    66.99000000
   H     84.62000000    23.54000000    66.62000000
   H     84.26000000    22.11000000    67.38000000
   H     85.95000000    24.70000000    64.74000000
   H     85.87000000    24.30000000    63.02000000
   H     84.35000000    24.33000000    63.80000000
   N     85.48000000    19.14000000    67.25000000
   C     86.90000000    18.87000000    67.07000000
   C     87.22000000    17.75000000    66.09000000
   O     88.31000000    17.77000000    65.53000000
   C     87.56000000    18.58000000    68.41000000
   C     87.02000000    19.43000000    69.55000000
   O     87.44000000    20.53000000    69.95000000
   O     86.08000000    18.90000000    70.19000000
   H     85.02000000    18.61000000    67.98000000
   H     87.45000000    19.78000000    66.85000000
   H     88.64000000    18.72000000    68.30000000
   H     87.48000000    17.52000000    68.63000000
   N     86.32000000    16.79000000    65.84000000
   C     86.44000000    15.76000000    64.83000000
   C     87.56000000    14.76000000    65.12000000
   O     87.32000000    13.82000000    65.88000000
   H     85.55000000    16.71000000    66.50000000
   H     86.58000000    16.22000000    63.86000000
   H     85.48000000    15.26000000    64.87000000
   N     88.71000000    14.98000000    64.48000000
   C     89.93000000    14.28000000    64.81000000
   C     91.19000000    15.12000000    64.65000000
   O     92.23000000    14.63000000    65.07000000
   C     89.90000000    13.05000000    63.91000000
   C     89.63000000    13.40000000    62.45000000
   O     90.30000000    14.31000000    61.92000000
   O     88.92000000    12.62000000    61.78000000
   H     88.89000000    15.69000000    63.79000000
   H     89.93000000    13.94000000    65.85000000
   H     89.18000000    12.36000000    64.34000000
   H     90.94000000    12.72000000    63.91000000
   N     91.14000000    16.31000000    64.04000000
   C     92.21000000    17.29000000    63.96000000
   C     93.16000000    17.02000000    62.81000000
   O     94.12000000    17.77000000    62.63000000
   H     90.21000000    16.64000000    63.84000000
   H     92.74000000    17.22000000    64.91000000
   H     91.84000000    18.31000000    63.83000000
   N     92.91000000    16.02000000    61.96000000
   C     93.49000000    15.87000000    60.63000000
   C     93.45000000    17.14000000    59.80000000
   O     94.48000000    17.56000000    59.27000000
   C     94.85000000    15.18000000    60.68000000
   C     94.77000000    13.70000000    61.05000000
   C     96.07000000    12.90000000    60.92000000
   N     96.12000000    11.80000000    61.66000000
   O     97.02000000    13.25000000    60.22000000
   H     92.13000000    15.44000000    62.23000000
   H     92.85000000    15.19000000    60.07000000
   H     95.50000000    15.77000000    61.32000000
   H     95.37000000    15.29000000    59.73000000
   H     94.05000000    13.36000000    60.30000000
   H     94.36000000    13.62000000    62.05000000
   H     95.29000000    11.38000000    62.05000000
   H     97.06000000    11.43000000    61.58000000
   N     92.29000000    17.78000000    59.67000000
   C     92.08000000    19.01000000    58.93000000
   C     91.66000000    18.68000000    57.50000000
   O     91.06000000    17.63000000    57.30000000
   C     91.01000000    19.89000000    59.57000000
   C     89.65000000    19.24000000    59.74000000
   C     91.49000000    20.57000000    60.85000000
   H     91.47000000    17.31000000    60.02000000
   H     93.07000000    19.46000000    58.86000000
   H     90.94000000    20.79000000    58.95000000
   H     89.81000000    18.33000000    60.32000000
   H     88.98000000    19.96000000    60.21000000
   H     89.30000000    19.01000000    58.73000000
   H     92.37000000    21.18000000    60.68000000
   H     90.67000000    21.17000000    61.25000000
   H     91.66000000    19.88000000    61.68000000
   N     91.99000000    19.51000000    56.51000000
   C     91.80000000    19.35000000    55.08000000
   C     91.40000000    20.66000000    54.41000000
   O     92.20000000    21.59000000    54.43000000
   C     93.12000000    18.92000000    54.46000000
   C     93.14000000    18.79000000    52.94000000
   N     92.04000000    18.24000000    52.42000000
   O     93.96000000    19.34000000    52.21000000
   H     92.47000000    20.33000000    56.85000000
   H     91.05000000    18.57000000    54.97000000
   H     93.34000000    17.94000000    54.90000000
   H     93.85000000    19.67000000    54.77000000
   H     91.34000000    17.84000000    53.02000000
   H     91.98000000    18.09000000    51.42000000
   N     90.31000000    20.73000000    53.65000000
   C     89.77000000    21.91000000    53.00000000
   C     88.34000000    21.74000000    52.52000000
   O     87.98000000    21.99000000    51.37000000
   C     90.75000000    22.31000000    51.90000000
   C     90.62000000    23.74000000    51.43000000
   C     91.20000000    24.78000000    52.17000000
   C     90.15000000    24.02000000    50.14000000
   C     91.00000000    26.12000000    51.80000000
   C     90.09000000    25.35000000    49.70000000
   C     90.41000000    26.42000000    50.56000000
   O     90.08000000    27.67000000    50.12000000
   H     89.83000000    19.85000000    53.53000000
   H     89.73000000    22.71000000    53.75000000
   H     90.73000000    21.66000000    51.03000000
   H     91.81000000    22.33000000    52.15000000
   H     91.66000000    24.57000000    53.12000000
   H     89.85000000    23.24000000    49.45000000
   H     91.37000000    26.89000000    52.45000000
   H     89.82000000    25.59000000    48.69000000
   H     89.65000000    27.57000000    49.27000000
   N     87.49000000    21.11000000    53.34000000
   C     86.20000000    20.67000000    52.84000000
   C     85.18000000    21.81000000    52.85000000
   O     84.41000000    21.82000000    51.89000000
   C     85.63000000    19.43000000    53.51000000
   C     84.24000000    18.97000000    53.07000000
   C     83.90000000    17.57000000    53.55000000
   O     84.52000000    16.55000000    53.19000000
   O     83.05000000    17.42000000    54.46000000
   H     87.76000000    20.75000000    54.24000000
   H     86.31000000    20.51000000    51.77000000
   H     85.60000000    19.71000000    54.57000000
   H     86.38000000    18.65000000    53.40000000
   H     84.30000000    18.95000000    51.98000000
   H     83.43000000    19.65000000    53.35000000
   N     85.06000000    22.72000000    53.82000000
   C     85.60000000    22.65000000    55.16000000
   C     86.85000000    23.48000000    55.44000000
   O     87.43000000    24.09000000    54.55000000
   C     84.54000000    23.16000000    56.13000000
   C     83.20000000    22.43000000    56.05000000
   C     83.23000000    20.91000000    56.19000000
   O     82.34000000    20.20000000    55.67000000
   O     84.07000000    20.38000000    56.94000000
   H     84.37000000    23.42000000    53.59000000
   H     85.82000000    21.66000000    55.54000000
   H     84.40000000    24.23000000    55.95000000
   H     84.71000000    23.07000000    57.20000000
   H     82.71000000    22.74000000    55.13000000
   H     82.58000000    22.77000000    56.89000000
   N     87.20000000    23.55000000    56.72000000
   C     88.35000000    24.31000000    57.19000000
   H     89.16400000    24.21900000    56.47000000
   H     88.07400000    25.35900000    57.29500000
   H     88.67400000    23.92000000    58.15500000
   H     86.70000000    23.09000000    57.47000000
  Ca     82.58000000    18.00000000    56.93000000
   O     84.24000000    15.80000000    56.88000000
   H     84.86000000    16.09000000    57.55000000
   H     84.78000000    15.48000000    56.16000000

Ca 1.00



