%chk=loop4.cluster107.chk
%nprocshared=20
%mem=10GB
%nosave
#b3lyp/svp scf=(tight,noincore,xqc) Test 
#IOP(5/87=12) Density=Current Pop=(MK,readradii) iop(6/33=2) iop(6/42=6)

loop4.cluster107 

   -3  1 
   C     70.46000000    56.77000000    45.16000000
   C     69.82000000    56.78000000    46.54000000
   O     68.77000000    57.39000000    46.73000000
   H     71.47400000    56.37700000    45.23300000
   H     69.87400000    56.13900000    44.49200000
   H     70.49200000    57.78600000    44.76600000
   N     70.42000000    56.31000000    47.63000000
   C     69.86000000    56.24000000    48.97000000
   C     70.41000000    57.34000000    49.88000000
   O     71.63000000    57.50000000    49.92000000
   C     70.25000000    54.83000000    49.38000000
   C     69.85000000    54.47000000    50.80000000
   O     69.04000000    55.17000000    51.44000000
   O     70.55000000    53.53000000    51.26000000
   H     71.37000000    56.01000000    47.47000000
   H     68.77000000    56.31000000    48.98000000
   H     71.34000000    54.79000000    49.35000000
   H     69.79000000    54.16000000    48.64000000
   N     69.58000000    58.07000000    50.62000000
   C     69.97000000    59.30000000    51.28000000
   C     70.46000000    59.02000000    52.70000000
   O     71.54000000    59.47000000    53.07000000
   C     68.91000000    60.37000000    51.09000000
   C     68.74000000    60.63000000    49.59000000
   C     69.38000000    61.66000000    51.76000000
   C     67.88000000    61.84000000    49.23000000
   H     68.69000000    57.69000000    50.92000000
   H     70.86000000    59.79000000    50.88000000
   H     68.00000000    59.94000000    51.51000000
   H     68.42000000    59.71000000    49.10000000
   H     69.74000000    60.80000000    49.19000000
   H     69.72000000    61.58000000    52.80000000
   H     70.12000000    62.12000000    51.11000000
   H     68.51000000    62.31000000    51.80000000
   H     66.87000000    61.76000000    49.66000000
   H     68.28000000    62.76000000    49.65000000
   H     67.71000000    62.03000000    48.17000000
   N     69.76000000    58.23000000    53.52000000
   C     70.12000000    57.88000000    54.87000000
   C     70.92000000    56.59000000    55.00000000
   O     71.27000000    56.15000000    56.10000000
   C     68.92000000    57.89000000    55.82000000
   C     67.88000000    56.81000000    55.58000000
   O     66.88000000    56.72000000    56.33000000
   O     67.95000000    56.09000000    54.56000000
   H     68.94000000    57.80000000    53.13000000
   H     70.85000000    58.61000000    55.22000000
   H     68.54000000    58.91000000    55.73000000
   H     69.28000000    57.78000000    56.84000000
   N     71.21000000    55.85000000    53.93000000
   C     72.29000000    54.89000000    53.82000000
   C     72.00000000    53.51000000    54.40000000
   O     72.92000000    52.73000000    54.60000000
   H     70.71000000    56.15000000    53.11000000
   H     73.17000000    55.27000000    54.34000000
   H     72.48000000    54.85000000    52.75000000
   N     70.73000000    53.15000000    54.59000000
   C     70.26000000    51.86000000    55.06000000
   C     70.29000000    50.76000000    54.01000000
   O     69.92000000    49.60000000    54.22000000
   C     68.93000000    52.02000000    55.80000000
   C     67.74000000    52.52000000    55.01000000
   O     66.62000000    52.28000000    55.52000000
   O     67.86000000    53.20000000    53.96000000
   H     70.08000000    53.89000000    54.35000000
   H     70.96000000    51.59000000    55.85000000
   H     69.16000000    52.72000000    56.61000000
   H     68.62000000    51.10000000    56.29000000
   N     70.78000000    51.01000000    52.80000000
   C     70.94000000    50.05000000    51.72000000
   C     69.65000000    49.90000000    50.93000000
   O     69.37000000    48.92000000    50.24000000
   H     70.87000000    51.99000000    52.56000000
   H     71.27000000    49.09000000    52.11000000
   H     71.81000000    50.42000000    51.17000000
   N     68.69000000    50.82000000    51.03000000
   C     67.42000000    50.73000000    50.34000000
   C     66.89000000    52.03000000    49.75000000
   O     67.02000000    53.06000000    50.40000000
   C     66.29000000    50.16000000    51.21000000
   C     66.67000000    48.80000000    51.78000000
   C     65.46000000    48.29000000    52.56000000
   N     65.72000000    47.65000000    53.70000000
   O     64.31000000    48.50000000    52.19000000
   H     68.96000000    51.67000000    51.51000000
   H     67.61000000    50.03000000    49.53000000
   H     65.36000000    50.21000000    50.65000000
   H     66.23000000    50.90000000    52.00000000
   H     67.45000000    49.04000000    52.50000000
   H     66.92000000    48.07000000    51.01000000
   H     66.67000000    47.62000000    54.03000000
   H     65.04000000    47.53000000    54.43000000
   N     66.18000000    52.00000000    48.62000000
   C     65.49000000    53.17000000    48.10000000
   C     64.00000000    53.05000000    48.34000000
   O     63.39000000    51.99000000    48.17000000
   C     65.75000000    53.20000000    46.60000000
   C     65.19000000    54.45000000    45.92000000
   C     67.24000000    53.21000000    46.27000000
   H     66.09000000    51.11000000    48.15000000
   H     65.89000000    54.09000000    48.54000000
   H     65.32000000    52.29000000    46.19000000
   H     64.12000000    54.54000000    46.09000000
   H     65.71000000    55.37000000    46.18000000
   H     65.28000000    54.22000000    44.86000000
   H     67.75000000    53.96000000    46.87000000
   H     67.68000000    52.22000000    46.44000000
   H     67.35000000    53.60000000    45.26000000
   N     63.39000000    54.16000000    48.76000000
   C     61.95000000    54.30000000    48.88000000
   C     61.45000000    55.22000000    47.78000000
   O     62.26000000    55.87000000    47.12000000
   C     61.44000000    54.71000000    50.26000000
   C     61.52000000    56.20000000    50.56000000
   N     62.76000000    56.68000000    50.60000000
   O     60.57000000    56.98000000    50.61000000
   H     63.91000000    55.02000000    48.87000000
   H     61.45000000    53.33000000    48.77000000
   H     61.99000000    54.19000000    51.04000000
   H     60.38000000    54.46000000    50.33000000
   H     63.59000000    56.10000000    50.54000000
   H     62.81000000    57.68000000    50.68000000
   N     60.19000000    55.49000000    47.46000000
   C     59.80000000    56.30000000    46.32000000
   C     60.20000000    57.76000000    46.49000000
   O     60.54000000    58.39000000    45.48000000
   C     58.29000000    56.14000000    46.16000000
   C     57.86000000    56.66000000    44.81000000
   C     57.98000000    55.88000000    43.65000000
   C     57.32000000    57.95000000    44.74000000
   C     57.53000000    56.45000000    42.46000000
   C     56.76000000    58.48000000    43.57000000
   C     56.79000000    57.65000000    42.43000000
   O     56.15000000    58.01000000    41.28000000
   H     59.46000000    55.09000000    48.03000000
   H     60.34000000    56.00000000    45.43000000
   H     57.70000000    56.67000000    46.90000000
   H     57.89000000    55.12000000    46.13000000
   H     58.37000000    54.87000000    43.72000000
   H     57.24000000    58.56000000    45.64000000
   H     57.58000000    55.98000000    41.49000000
   H     56.37000000    59.48000000    43.50000000
   H     55.91000000    58.93000000    41.23000000
   N     60.37000000    58.36000000    47.67000000
   C     60.82000000    59.73000000    47.77000000
   C     62.29000000    59.86000000    47.38000000
   O     62.71000000    60.86000000    46.81000000
   C     60.50000000    60.26000000    49.17000000
   C     59.05000000    60.73000000    49.27000000
   C     58.62000000    61.29000000    50.62000000
   O     58.93000000    62.47000000    50.88000000
   O     58.04000000    60.54000000    51.44000000
   H     60.23000000    57.83000000    48.52000000
   H     60.33000000    60.34000000    47.01000000
   H     61.15000000    61.12000000    49.31000000
   H     60.73000000    59.57000000    49.97000000
   H     58.44000000    59.88000000    48.95000000
   H     58.86000000    61.55000000    48.58000000
   N     63.13000000    58.88000000    47.71000000
   C     64.51000000    58.79000000    47.26000000
   C     64.60000000    58.36000000    45.80000000
   O     65.70000000    58.45000000    45.25000000
   C     65.15000000    57.63000000    48.01000000
   C     65.62000000    58.10000000    49.38000000
   C     65.89000000    57.06000000    50.47000000
   O     66.82000000    57.29000000    51.27000000
   O     65.28000000    55.98000000    50.56000000
   H     62.75000000    58.03000000    48.11000000
   H     65.10000000    59.69000000    47.43000000
   H     65.96000000    57.22000000    47.41000000
   H     64.47000000    56.79000000    48.16000000
   H     64.79000000    58.70000000    49.76000000
   H     66.48000000    58.74000000    49.19000000
   N     63.47000000    58.01000000    45.19000000
   C     63.32000000    57.69000000    43.78000000
   H     62.69800000    58.44600000    43.30100000
   H     64.30100000    57.67200000    43.30500000
   H     62.84800000    56.71300000    43.67700000
   H     62.68000000    57.92000000    45.80000000
  Ca     66.74000000    55.00000000    52.50000000
   O     65.01000000    55.99000000    54.30000000
   H     65.56000000    56.05000000    55.09000000
   H     64.13000000    55.80000000    54.63000000
   O     64.37000000    53.45000000    53.00000000
   H     63.87000000    53.58000000    53.80000000
   H     64.16000000    52.55000000    52.73000000

Ca 1.00



