%chk=loop4.cluster115.chk
%nprocshared=20
%mem=10GB
%nosave
#b3lyp/svp scf=(tight,noincore,xqc) Test 
#IOP(5/87=12) Density=Current Pop=(MK,readradii) iop(6/33=2) iop(6/42=6)

loop4.cluster115 

   -3  1 
   C     48.53000000    52.04000000    68.52000000
   C     48.62000000    53.11000000    69.59000000
   O     49.68000000    53.57000000    70.00000000
   H     47.99400000    52.43400000    67.65700000
   H     49.53400000    51.74200000    68.21800000
   H     47.99600000    51.17500000    68.91400000
   N     47.46000000    53.55000000    70.08000000
   C     47.17000000    54.71000000    70.90000000
   C     47.75000000    56.05000000    70.46000000
   O     48.87000000    56.22000000    69.99000000
   C     47.42000000    54.44000000    72.39000000
   C     48.80000000    53.86000000    72.66000000
   O     48.85000000    52.64000000    72.90000000
   O     49.81000000    54.60000000    72.67000000
   H     46.65000000    53.05000000    69.76000000
   H     46.11000000    54.86000000    70.72000000
   H     46.68000000    53.71000000    72.71000000
   H     47.23000000    55.35000000    72.95000000
   N     46.82000000    57.00000000    70.44000000
   C     47.02000000    58.33000000    69.91000000
   C     48.15000000    59.06000000    70.62000000
   O     48.92000000    59.75000000    69.95000000
   C     47.06000000    58.42000000    68.39000000
   C     46.69000000    59.80000000    67.84000000
   C     46.31000000    57.23000000    67.79000000
   C     45.19000000    60.06000000    67.78000000
   H     45.91000000    56.79000000    70.84000000
   H     46.13000000    58.89000000    70.21000000
   H     48.07000000    58.33000000    67.99000000
   H     47.04000000    59.85000000    66.81000000
   H     47.23000000    60.58000000    68.37000000
   H     45.30000000    57.18000000    68.19000000
   H     46.19000000    57.31000000    66.71000000
   H     46.88000000    56.32000000    67.95000000
   H     45.04000000    61.06000000    67.37000000
   H     44.74000000    59.37000000    67.07000000
   H     44.68000000    60.06000000    68.75000000
   N     48.28000000    59.04000000    71.95000000
   C     49.43000000    59.52000000    72.69000000
   C     50.72000000    58.75000000    72.45000000
   O     50.80000000    57.54000000    72.23000000
   C     49.10000000    59.69000000    74.17000000
   C     48.38000000    58.51000000    74.80000000
   O     48.96000000    57.86000000    75.69000000
   O     47.18000000    58.33000000    74.50000000
   H     47.55000000    58.51000000    72.40000000
   H     49.62000000    60.56000000    72.43000000
   H     48.42000000    60.53000000    74.28000000
   H     49.98000000    59.91000000    74.77000000
   N     51.90000000    59.32000000    72.71000000
   C     52.33000000    60.70000000    72.84000000
   C     53.37000000    60.83000000    73.95000000
   O     53.50000000    59.92000000    74.77000000
   H     52.68000000    58.68000000    72.71000000
   H     51.52000000    61.33000000    73.24000000
   H     52.66000000    60.99000000    71.85000000
   N     53.95000000    62.02000000    74.10000000
   C     53.97000000    63.22000000    73.29000000
   C     55.32000000    63.91000000    73.32000000
   O     56.18000000    63.63000000    74.15000000
   C     52.97000000    64.26000000    73.79000000
   C     53.17000000    64.55000000    75.27000000
   O     52.56000000    63.90000000    76.15000000
   O     53.79000000    65.59000000    75.57000000
   H     54.71000000    62.07000000    74.77000000
   H     53.72000000    62.90000000    72.28000000
   H     51.97000000    63.83000000    73.75000000
   H     52.95000000    65.17000000    73.20000000
   N     55.59000000    64.76000000    72.32000000
   C     54.82000000    64.90000000    71.10000000
   C     55.51000000    65.54000000    69.90000000
   O     54.78000000    65.99000000    69.02000000
   H     56.50000000    65.19000000    72.39000000
   H     53.94000000    65.47000000    71.40000000
   H     54.51000000    63.94000000    70.67000000
   N     56.84000000    65.57000000    69.90000000
   C     57.68000000    66.20000000    68.90000000
   C     57.55000000    65.55000000    67.54000000
   O     57.84000000    66.18000000    66.52000000
   C     59.13000000    66.20000000    69.38000000
   C     59.74000000    64.80000000    69.51000000
   C     61.16000000    64.99000000    70.03000000
   N     62.10000000    65.54000000    69.26000000
   O     61.51000000    64.68000000    71.17000000
   H     57.37000000    65.05000000    70.58000000
   H     57.40000000    67.25000000    68.82000000
   H     59.21000000    66.65000000    70.37000000
   H     59.84000000    66.81000000    68.82000000
   H     59.81000000    64.34000000    68.53000000
   H     59.25000000    64.12000000    70.21000000
   H     61.96000000    65.80000000    68.29000000
   H     63.03000000    65.62000000    69.64000000
   N     57.06000000    64.31000000    67.41000000
   C     56.77000000    63.48000000    66.26000000
   C     57.96000000    62.59000000    65.93000000
   O     58.77000000    62.17000000    66.75000000
   C     55.57000000    62.60000000    66.58000000
   C     55.28000000    61.40000000    65.68000000
   C     54.22000000    63.27000000    66.80000000
   H     56.90000000    63.84000000    68.29000000
   H     56.49000000    64.19000000    65.47000000
   H     55.75000000    62.09000000    67.53000000
   H     55.32000000    61.72000000    64.64000000
   H     56.02000000    60.63000000    65.90000000
   H     54.26000000    61.07000000    65.86000000
   H     54.37000000    64.22000000    67.31000000
   H     53.75000000    63.55000000    65.86000000
   H     53.56000000    62.66000000    67.42000000
   N     58.04000000    62.22000000    64.65000000
   C     59.08000000    61.47000000    63.97000000
   C     59.21000000    60.01000000    64.39000000
   O     59.32000000    59.13000000    63.54000000
   C     60.39000000    62.24000000    63.91000000
   C     60.21000000    63.72000000    63.59000000
   N     59.39000000    64.08000000    62.59000000
   O     60.85000000    64.55000000    64.22000000
   H     57.32000000    62.54000000    64.01000000
   H     58.86000000    61.30000000    62.92000000
   H     61.12000000    61.82000000    63.23000000
   H     60.77000000    62.23000000    64.94000000
   H     58.89000000    63.40000000    62.05000000
   H     59.14000000    65.06000000    62.52000000
   N     59.36000000    59.81000000    65.70000000
   C     60.00000000    58.64000000    66.27000000
   C     59.00000000    57.69000000    66.91000000
   O     58.15000000    58.12000000    67.69000000
   C     61.11000000    59.11000000    67.19000000
   C     62.13000000    60.15000000    66.75000000
   C     62.05000000    61.46000000    67.22000000
   C     63.15000000    59.81000000    65.85000000
   C     62.91000000    62.47000000    66.77000000
   C     63.98000000    60.81000000    65.34000000
   C     63.94000000    62.11000000    65.88000000
   O     64.69000000    63.10000000    65.33000000
   H     59.30000000    60.56000000    66.37000000
   H     60.56000000    58.08000000    65.52000000
   H     61.56000000    58.20000000    67.57000000
   H     60.64000000    59.60000000    68.04000000
   H     61.18000000    61.67000000    67.83000000
   H     63.17000000    58.79000000    65.49000000
   H     62.86000000    63.44000000    67.24000000
   H     64.77000000    60.58000000    64.64000000
   H     65.42000000    62.84000000    64.75000000
   N     59.32000000    56.43000000    66.61000000
   C     58.77000000    55.18000000    67.10000000
   C     57.31000000    54.88000000    66.84000000
   O     57.03000000    53.73000000    66.48000000
   C     59.09000000    55.04000000    68.59000000
   C     60.56000000    54.96000000    68.97000000
   C     60.86000000    54.65000000    70.43000000
   O     60.89000000    53.46000000    70.80000000
   O     61.15000000    55.62000000    71.16000000
   H     59.97000000    56.29000000    65.84000000
   H     59.39000000    54.41000000    66.64000000
   H     58.67000000    54.14000000    69.05000000
   H     58.67000000    55.82000000    69.22000000
   H     60.97000000    55.92000000    68.64000000
   H     61.01000000    54.21000000    68.32000000
   N     56.37000000    55.83000000    66.87000000
   C     55.02000000    55.65000000    66.39000000
   C     54.96000000    55.44000000    64.89000000
   O     54.12000000    54.71000000    64.35000000
   C     54.31000000    56.98000000    66.63000000
   C     54.31000000    57.46000000    68.08000000
   C     53.28000000    56.80000000    68.98000000
   O     52.54000000    57.50000000    69.71000000
   O     53.08000000    55.57000000    69.04000000
   H     56.62000000    56.77000000    67.15000000
   H     54.48000000    54.82000000    66.84000000
   H     53.32000000    56.95000000    66.16000000
   H     54.87000000    57.75000000    66.10000000
   H     54.10000000    58.53000000    68.04000000
   H     55.27000000    57.28000000    68.56000000
   N     55.94000000    55.94000000    64.14000000
   C     55.90000000    55.84000000    62.69000000
   H     55.90800000    56.84000000    62.25700000
   H     56.77100000    55.28600000    62.33900000
   H     54.99100000    55.32100000    62.38600000
   H     56.66000000    56.51000000    64.58000000
  Ca     51.22000000    55.50000000    70.74000000
   O     52.62000000    53.14000000    71.61000000
   H     52.15000000    52.37000000    71.93000000
   H     53.49000000    53.08000000    72.01000000
   O     53.39000000    55.81000000    72.23000000
   H     54.02000000    55.14000000    72.51000000
   H     53.50000000    56.52000000    72.86000000

Ca 1.00



