%chk=loop3.cluster107.chk
%nprocshared=20
%mem=10GB
%nosave
#b3lyp/svp scf=(tight,noincore,xqc) Test 
#IOP(5/87=12) Density=Current Pop=(MK,readradii) iop(6/33=2) iop(6/42=6)

loop3.cluster107 

   0  1 
   C     54.10000000    55.29000000    43.22000000
   C     53.60000000    55.60000000    44.62000000
   O     52.49000000    55.34000000    45.10000000
   H     55.12500000    54.92200000    43.27400000
   H     53.46500000    54.52900000    42.76700000
   H     54.07100000    56.19600000    42.61400000
   N     54.60000000    56.04000000    45.37000000
   C     54.66000000    56.41000000    46.77000000
   C     53.75000000    57.57000000    47.15000000
   O     54.21000000    58.68000000    47.41000000
   C     54.63000000    55.26000000    47.77000000
   C     55.66000000    54.23000000    47.32000000
   O     55.29000000    53.42000000    46.44000000
   O     56.80000000    54.26000000    47.82000000
   H     55.40000000    56.31000000    44.82000000
   H     55.66000000    56.83000000    46.90000000
   H     53.62000000    54.88000000    47.68000000
   H     54.80000000    55.52000000    48.82000000
   N     52.45000000    57.31000000    47.25000000
   C     51.55000000    58.11000000    48.06000000
   C     52.08000000    58.64000000    49.38000000
   O     52.05000000    59.85000000    49.60000000
   C     50.17000000    57.45000000    48.18000000
   C     50.11000000    56.46000000    49.34000000
   C     50.87000000    55.14000000    49.24000000
   C     50.56000000    54.16000000    50.37000000
   N     51.26000000    54.58000000    51.59000000
   H     52.02000000    56.50000000    46.82000000
   H     51.38000000    58.95000000    47.39000000
   H     49.90000000    56.91000000    47.27000000
   H     49.40000000    58.20000000    48.31000000
   H     49.06000000    56.20000000    49.39000000
   H     50.36000000    56.98000000    50.26000000
   H     51.93000000    55.36000000    49.24000000
   H     50.68000000    54.74000000    48.24000000
   H     50.93000000    53.22000000    49.95000000
   H     49.48000000    54.13000000    50.49000000
   H     50.85000000    54.07000000    52.36000000
   H     52.26000000    54.47000000    51.52000000
   H     51.24000000    55.58000000    51.70000000
   N     52.89000000    57.87000000    50.11000000
   C     53.75000000    58.27000000    51.21000000
   C     54.54000000    57.06000000    51.67000000
   O     54.26000000    55.94000000    51.26000000
   C     53.04000000    58.98000000    52.36000000
   C     51.73000000    58.34000000    52.80000000
   O     50.82000000    59.06000000    53.27000000
   O     51.47000000    57.13000000    52.67000000
   H     52.84000000    56.87000000    49.97000000
   H     54.45000000    59.02000000    50.84000000
   H     52.82000000    60.02000000    52.15000000
   H     53.61000000    59.09000000    53.29000000
   N     55.57000000    57.27000000    52.50000000
   C     56.44000000    56.28000000    53.10000000
   C     55.73000000    55.57000000    54.23000000
   O     54.96000000    56.20000000    54.96000000
   H     55.74000000    58.22000000    52.80000000
   H     57.27000000    56.88000000    53.49000000
   H     56.73000000    55.60000000    52.30000000
   N     56.10000000    54.30000000    54.41000000
   C     55.55000000    53.42000000    55.42000000
   C     56.66000000    52.67000000    56.14000000
   O     56.43000000    51.78000000    56.96000000
   C     54.59000000    52.47000000    54.71000000
   C     53.45000000    53.13000000    53.95000000
   N     52.53000000    53.73000000    54.71000000
   O     53.32000000    53.06000000    52.73000000
   H     56.57000000    53.83000000    53.65000000
   H     55.05000000    53.98000000    56.21000000
   H     54.19000000    51.75000000    55.41000000
   H     55.19000000    51.89000000    54.01000000
   H     52.60000000    53.86000000    55.71000000
   H     51.64000000    53.95000000    54.31000000
   N     57.95000000    52.91000000    55.88000000
   C     59.02000000    52.14000000    56.48000000
   C     58.98000000    50.68000000    56.04000000
   O     58.97000000    50.33000000    54.86000000
   H     58.13000000    53.70000000    55.27000000
   H     58.96000000    52.15000000    57.57000000
   H     59.95000000    52.60000000    56.16000000
   N     58.99000000    49.78000000    57.03000000
   C     58.99000000    48.33000000    56.91000000
   C     57.88000000    47.71000000    56.09000000
   O     57.85000000    46.50000000    55.87000000
   C     60.40000000    47.80000000    56.63000000
   C     61.48000000    48.22000000    57.59000000
   C     61.61000000    47.48000000    58.77000000
   C     62.43000000    49.19000000    57.22000000
   C     62.66000000    47.73000000    59.65000000
   C     63.50000000    49.39000000    58.10000000
   C     63.69000000    48.62000000    59.27000000
   O     64.71000000    48.92000000    60.11000000
   H     58.94000000    50.18000000    57.95000000
   H     58.86000000    48.04000000    57.95000000
   H     60.57000000    48.24000000    55.65000000
   H     60.35000000    46.72000000    56.53000000
   H     60.92000000    46.68000000    59.02000000
   H     62.46000000    49.78000000    56.32000000
   H     62.71000000    47.25000000    60.62000000
   H     64.29000000    50.06000000    57.81000000
   H     65.07000000    49.78000000    59.90000000
   N     56.86000000    48.48000000    55.69000000
   C     55.67000000    48.21000000    54.92000000
   C     54.61000000    47.36000000    55.61000000
   O     53.52000000    47.82000000    55.93000000
   C     56.05000000    47.69000000    53.54000000
   C     56.98000000    48.61000000    52.75000000
   C     54.79000000    47.50000000    52.71000000
   C     56.74000000    50.11000000    52.61000000
   H     57.01000000    49.48000000    55.73000000
   H     55.17000000    49.16000000    54.74000000
   H     56.54000000    46.71000000    53.54000000
   H     57.08000000    48.21000000    51.74000000
   H     57.97000000    48.51000000    53.19000000
   H     55.03000000    47.37000000    51.65000000
   H     54.33000000    46.55000000    52.99000000
   H     54.11000000    48.33000000    52.88000000
   H     57.62000000    50.47000000    52.08000000
   H     55.88000000    50.39000000    52.00000000
   H     56.78000000    50.62000000    53.57000000
   N     55.01000000    46.13000000    55.94000000
   C     54.18000000    45.28000000    56.77000000
   C     52.81000000    44.93000000    56.23000000
   O     51.91000000    44.69000000    57.03000000
   C     54.87000000    44.00000000    57.25000000
   O     55.38000000    43.22000000    56.19000000
   H     55.93000000    45.79000000    55.67000000
   H     53.93000000    45.93000000    57.61000000
   H     54.14000000    43.49000000    57.88000000
   H     55.67000000    44.42000000    57.86000000
   H     55.17000000    42.29000000    56.30000000
   N     52.67000000    44.94000000    54.90000000
   C     51.44000000    44.93000000    54.14000000
   C     50.52000000    46.14000000    54.17000000
   O     49.40000000    46.11000000    53.67000000
   C     50.66000000    43.64000000    54.37000000
   H     53.50000000    44.91000000    54.32000000
   H     51.70000000    44.83000000    53.09000000
   H     51.26000000    42.73000000    54.48000000
   H     49.96000000    43.81000000    55.19000000
   H     50.08000000    43.56000000    53.45000000
   N     50.95000000    47.22000000    54.83000000
   C     50.11000000    48.40000000    55.00000000
   C     50.02000000    49.31000000    53.78000000
   O     50.92000000    49.55000000    52.97000000
   C     50.69000000    49.24000000    56.14000000
   H     51.81000000    47.17000000    55.35000000
   H     49.09000000    48.09000000    55.20000000
   H     51.66000000    49.58000000    55.80000000
   H     49.93000000    49.96000000    56.44000000
   H     50.84000000    48.58000000    57.00000000
   N     48.82000000    49.86000000    53.62000000
   C     48.36000000    50.80000000    52.62000000
   C     48.65000000    50.51000000    51.16000000
   O     48.75000000    51.44000000    50.35000000
   C     48.90000000    52.19000000    52.93000000
   C     48.48000000    52.75000000    54.28000000
   C     48.86000000    54.23000000    54.30000000
   O     48.08000000    55.06000000    54.83000000
   O     50.00000000    54.63000000    53.99000000
   H     48.06000000    49.32000000    54.03000000
   H     47.28000000    50.80000000    52.72000000
   H     48.43000000    52.92000000    52.26000000
   H     49.98000000    52.22000000    52.77000000
   H     49.09000000    52.35000000    55.09000000
   H     47.40000000    52.63000000    54.35000000
   N     48.75000000    49.22000000    50.82000000
   C     49.02000000    48.79000000    49.47000000
   H     50.06000000    48.47400000    49.39100000
   H     48.36700000    47.95500000    49.21700000
   H     48.83900000    49.61600000    48.78200000
   H     48.64000000    48.50000000    51.53000000
  Ca     49.81000000    57.08000000    54.76000000
   O     50.08000000    55.73000000    57.18000000
   H     49.16000000    55.55000000    57.37000000
   H     50.51000000    54.89000000    57.27000000
   O     52.31000000    56.59000000    55.74000000
   H     53.19000000    56.52000000    55.36000000
   H     52.40000000    56.21000000    56.61000000
   O     47.46000000    57.22000000    56.70000000
   H     46.86000000    57.96000000    56.83000000
   H     47.37000000    56.71000000    57.50000000
   O     48.41000000    59.21000000    54.37000000
   H     47.57000000    59.48000000    54.74000000
   H     48.80000000    60.02000000    54.05000000
   O     50.69000000    58.93000000    56.64000000
   H     51.64000000    58.96000000    56.71000000
   H     50.40000000    59.81000000    56.88000000
   O     48.45000000    56.64000000    52.29000000
   H     47.68000000    56.70000000    52.85000000
   H     48.44000000    57.44000000    51.77000000

Ca 1.00



