%chk=loop3.cluster167.chk
%nprocshared=20
%mem=10GB
%nosave
#b3lyp/svp scf=(tight,noincore,xqc) Test 
#IOP(5/87=12) Density=Current Pop=(MK,readradii) iop(6/33=2) iop(6/42=6)

loop3.cluster167 

   0  1 
   C     96.71000000    57.33000000    30.77000000
   C     97.20000000    55.89000000    30.72000000
   O     96.85000000    55.08000000    31.58000000
   H     95.74700000    57.36800000    31.28000000
   H     97.43200000    57.94100000    31.31200000
   H     96.59900000    57.71200000    29.75500000
   N     98.09000000    55.54000000    29.79000000
   C     98.78000000    54.27000000    29.77000000
   C     99.98000000    54.20000000    30.71000000
   O    100.53000000    55.21000000    31.14000000
   C     99.15000000    54.02000000    28.32000000
   C     99.66000000    52.58000000    28.31000000
   O     98.86000000    51.63000000    28.46000000
   O    100.85000000    52.23000000    28.15000000
   H     98.38000000    56.24000000    29.12000000
   H     98.00000000    53.54000000    30.03000000
   H     99.98000000    54.65000000    27.98000000
   H     98.25000000    54.06000000    27.71000000
   N    100.42000000    53.04000000    31.22000000
   C    101.45000000    52.86000000    32.22000000
   C    102.87000000    53.05000000    31.69000000
   O    103.86000000    53.12000000    32.41000000
   C    101.24000000    51.56000000    32.99000000
   C    101.22000000    50.28000000    32.15000000
   C    100.83000000    48.95000000    32.79000000
   C     99.46000000    49.05000000    33.44000000
   N     99.16000000    47.89000000    34.29000000
   H     99.99000000    52.22000000    30.83000000
   H    101.26000000    53.63000000    32.96000000
   H    100.23000000    51.61000000    33.40000000
   H    102.03000000    51.46000000    33.74000000
   H    102.29000000    50.15000000    31.96000000
   H    100.63000000    50.39000000    31.24000000
   H    101.54000000    48.78000000    33.60000000
   H    100.95000000    48.07000000    32.16000000
   H     98.69000000    49.06000000    32.66000000
   H     99.46000000    49.97000000    34.02000000
   H     99.73000000    47.84000000    35.13000000
   H     98.19000000    47.88000000    34.57000000
   H     99.29000000    47.00000000    33.84000000
   N    103.06000000    53.04000000    30.37000000
   C    104.26000000    53.47000000    29.68000000
   C    104.05000000    54.69000000    28.79000000
   O    105.02000000    55.44000000    28.65000000
   C    104.86000000    52.30000000    28.91000000
   C    103.93000000    51.58000000    27.94000000
   O    103.43000000    52.23000000    27.00000000
   O    103.63000000    50.37000000    28.07000000
   H    102.31000000    52.85000000    29.72000000
   H    104.96000000    53.85000000    30.42000000
   H    105.12000000    51.50000000    29.61000000
   H    105.75000000    52.72000000    28.45000000
   N    102.83000000    54.97000000    28.34000000
   C    102.44000000    56.01000000    27.40000000
   C    102.60000000    55.78000000    25.90000000
   O    102.12000000    56.60000000    25.13000000
   H    102.26000000    54.14000000    28.36000000
   H    102.87000000    56.93000000    27.79000000
   H    101.39000000    56.10000000    27.65000000
   N    103.11000000    54.60000000    25.55000000
   C    103.13000000    54.18000000    24.16000000
   C    101.91000000    53.37000000    23.75000000
   O    101.69000000    52.29000000    24.29000000
   C    104.44000000    53.46000000    23.84000000
   C    104.41000000    52.68000000    22.54000000
   N    105.05000000    53.20000000    21.49000000
   O    103.95000000    51.54000000    22.45000000
   H    103.44000000    54.00000000    26.29000000
   H    103.16000000    55.04000000    23.48000000
   H    104.62000000    52.66000000    24.56000000
   H    105.32000000    54.10000000    23.80000000
   H    105.37000000    54.16000000    21.60000000
   H    105.15000000    52.62000000    20.67000000
   N    101.13000000    53.82000000    22.76000000
   C     99.86000000    53.17000000    22.54000000
   C     99.81000000    51.68000000    22.19000000
   O     98.72000000    51.12000000    22.11000000
   H    101.40000000    54.64000000    22.23000000
   H     99.45000000    53.69000000    21.67000000
   H     99.25000000    53.48000000    23.39000000
   N    100.91000000    51.01000000    21.84000000
   C    100.92000000    49.60000000    21.53000000
   C    100.71000000    48.68000000    22.74000000
   O    101.25000000    49.04000000    23.78000000
   C    102.16000000    49.19000000    20.74000000
   C    102.25000000    49.90000000    19.42000000
   C    101.83000000    49.27000000    18.24000000
   C    102.69000000    51.23000000    19.28000000
   C    101.99000000    49.86000000    16.98000000
   C    102.81000000    51.89000000    18.05000000
   C    102.49000000    51.17000000    16.88000000
   O    102.75000000    51.83000000    15.71000000
   H    101.75000000    51.54000000    22.01000000
   H    100.07000000    49.36000000    20.90000000
   H    102.22000000    48.13000000    20.50000000
   H    103.09000000    49.40000000    21.27000000
   H    101.27000000    48.36000000    18.37000000
   H    103.09000000    51.73000000    20.14000000
   H    101.61000000    49.29000000    16.14000000
   H    103.29000000    52.85000000    17.95000000
   H    103.09000000    52.71000000    15.89000000
   N    100.06000000    47.53000000    22.58000000
   C     99.78000000    46.55000000    23.62000000
   C    101.03000000    45.86000000    24.14000000
   O    102.13000000    46.39000000    24.27000000
   C     98.91000000    47.18000000    24.71000000
   C     98.67000000    46.22000000    25.87000000
   C     97.59000000    47.58000000    24.07000000
   C     97.55000000    46.55000000    26.86000000
   H     99.68000000    47.28000000    21.69000000
   H     99.09000000    45.80000000    23.25000000
   H     99.36000000    48.14000000    24.96000000
   H     99.54000000    46.06000000    26.51000000
   H     98.44000000    45.26000000    25.42000000
   H     96.92000000    48.19000000    24.67000000
   H     97.65000000    48.17000000    23.16000000
   H     97.17000000    46.61000000    23.79000000
   H     97.83000000    46.16000000    27.83000000
   H     97.47000000    47.64000000    26.84000000
   H     96.64000000    46.09000000    26.49000000
   N    100.85000000    44.61000000    24.57000000
   C    101.83000000    43.77000000    25.23000000
   C    101.65000000    42.32000000    24.79000000
   O    102.54000000    41.55000000    25.12000000
   C    101.79000000    44.06000000    26.73000000
   O    100.52000000    43.65000000    27.19000000
   H     99.86000000    44.39000000    24.63000000
   H    102.83000000    43.99000000    24.86000000
   H    101.94000000    45.12000000    26.93000000
   H    102.45000000    43.48000000    27.38000000
   H    100.70000000    42.89000000    27.75000000
   N    100.47000000    41.94000000    24.28000000
   C    100.11000000    40.56000000    24.02000000
   C    100.33000000    39.70000000    25.26000000
   O    101.24000000    38.88000000    25.30000000
   C    100.75000000    40.01000000    22.75000000
   H     99.86000000    42.70000000    24.04000000
   H     99.02000000    40.55000000    23.91000000
   H    100.30000000    40.48000000    21.88000000
   H    101.83000000    40.08000000    22.78000000
   H    100.59000000    38.94000000    22.64000000
   N     99.68000000    39.83000000    26.42000000
   C     98.60000000    40.73000000    26.76000000
   C     97.27000000    40.09000000    26.38000000
   O     97.19000000    38.86000000    26.32000000
   C     98.59000000    40.93000000    28.27000000
   H     99.93000000    39.17000000    27.15000000
   H     98.65000000    41.69000000    26.25000000
   H     98.18000000    41.88000000    28.61000000
   H     98.05000000    40.12000000    28.77000000
   H     99.63000000    40.99000000    28.58000000
   N     96.18000000    40.78000000    26.04000000
   C     95.91000000    42.20000000    26.20000000
   C     94.94000000    42.66000000    25.12000000
   O     95.15000000    43.73000000    24.54000000
   C     95.15000000    42.45000000    27.50000000
   C     94.86000000    43.89000000    27.93000000
   C     94.19000000    43.94000000    29.29000000
   O     92.96000000    43.70000000    29.40000000
   O     94.90000000    44.26000000    30.26000000
   H     95.33000000    40.25000000    25.98000000
   H     96.86000000    42.72000000    26.22000000
   H     95.65000000    41.92000000    28.30000000
   H     94.16000000    42.02000000    27.31000000
   H     94.15000000    44.31000000    27.22000000
   H     95.85000000    44.36000000    27.86000000
   N     93.87000000    41.94000000    24.78000000
   C     92.86000000    42.23000000    23.79000000
   H     92.00900000    42.71200000    24.27100000
   H     93.27400000    42.89600000    23.03200000
   H     92.53400000    41.30200000    23.32000000
   H     93.69000000    41.14000000    25.38000000
  Ca    101.64400000    50.47000000    26.21000000
   O     99.11000000    51.20000000    25.41000000
   H     98.38000000    50.92000000    25.97000000
   H     98.84000000    52.07000000    25.11000000
   O    102.42400000    48.00000000    26.37000000
   H    102.18400000    47.35000000    25.71000000
   H    102.85400000    47.50000000    27.06000000
   O    103.83400000    50.04000000    24.70000000
   H    103.99400000    50.61000000    23.95000000
   H    104.44400000    49.31000000    24.58000000
   O     99.80400000    49.36000000    27.65000000
   H     99.43400000    50.11000000    28.12000000
   H     99.54400000    48.60000000    28.18000000

Ca 1.00



