%chk=loop3.cluster110.chk
%nprocshared=20
%mem=10GB
%nosave
#b3lyp/svp scf=(tight,noincore,xqc) Test 
#IOP(5/87=12) Density=Current Pop=(MK,readradii) iop(6/33=2) iop(6/42=6)

loop3.cluster110 

   0  1 
   C    107.17000000    57.03000000    12.71000000
   C    106.80000000    58.14000000    11.74000000
   O    105.68000000    58.16000000    11.22000000
   H    108.04800000    57.32700000    13.28300000
   H    106.33800000    56.84800000    13.39000000
   H    107.39100000    56.11900000    12.15400000
   N    107.68000000    59.08000000    11.39000000
   C    107.40000000    60.08000000    10.38000000
   C    107.60000000    59.36000000     9.05000000
   O    108.34000000    58.40000000     8.86000000
   C    108.47000000    61.16000000    10.47000000
   C    109.94000000    60.75000000    10.54000000
   O    110.67000000    61.28000000     9.68000000
   O    110.38000000    60.08000000    11.50000000
   H    108.58000000    59.03000000    11.85000000
   H    106.46000000    60.61000000    10.50000000
   H    108.25000000    61.80000000    11.33000000
   H    108.34000000    61.77000000     9.57000000
   N    106.88000000    59.82000000     8.03000000
   C    107.13000000    59.42000000     6.66000000
   C    106.81000000    57.96000000     6.35000000
   O    107.41000000    57.28000000     5.52000000
   C    106.44000000    60.24000000     5.57000000
   C    106.69000000    59.86000000     4.11000000
   C    105.78000000    60.77000000     3.30000000
   C    105.73000000    60.59000000     1.79000000
   N    104.97000000    61.68000000     1.15000000
   H    106.21000000    60.55000000     8.18000000
   H    108.21000000    59.44000000     6.47000000
   H    106.89000000    61.23000000     5.67000000
   H    105.38000000    60.34000000     5.77000000
   H    106.31000000    58.86000000     3.91000000
   H    107.73000000    59.93000000     3.79000000
   H    106.12000000    61.80000000     3.42000000
   H    104.77000000    60.75000000     3.71000000
   H    105.45000000    59.58000000     1.47000000
   H    106.75000000    60.81000000     1.48000000
   H    104.95000000    61.68000000     0.14000000
   H    103.96000000    61.64000000     1.21000000
   H    105.29000000    62.59000000     1.45000000
   N    105.79000000    57.45000000     7.03000000
   C    105.13000000    56.17000000     6.89000000
   C    104.27000000    56.07000000     5.64000000
   O    103.05000000    55.97000000     5.75000000
   C    104.31000000    55.78000000     8.12000000
   C    103.21000000    56.69000000     8.65000000
   O    102.50000000    56.33000000     9.61000000
   O    103.06000000    57.87000000     8.25000000
   H    105.41000000    58.08000000     7.73000000
   H    105.99000000    55.52000000     6.72000000
   H    105.08000000    55.68000000     8.89000000
   H    103.86000000    54.80000000     7.95000000
   N    104.85000000    56.23000000     4.45000000
   C    104.06000000    56.49000000     3.26000000
   C    103.46000000    57.88000000     3.09000000
   O    103.50000000    58.66000000     4.05000000
   H    105.84000000    56.42000000     4.47000000
   H    103.25000000    55.77000000     3.20000000
   H    104.72000000    56.24000000     2.42000000
   N    102.65000000    58.17000000     2.08000000
   C    102.29000000    57.37000000     0.92000000
   C    100.90000000    56.78000000     1.11000000
   O    100.20000000    57.32000000     1.96000000
   C    102.31000000    58.21000000    -0.35000000
   C    103.69000000    58.78000000    -0.63000000
   N    103.61000000    59.90000000    -1.35000000
   O    104.76000000    58.32000000    -0.22000000
   H    102.09000000    59.00000000     2.22000000
   H    102.98000000    56.53000000     0.82000000
   H    101.62000000    59.06000000    -0.35000000
   H    102.12000000    57.65000000    -1.26000000
   H    102.69000000    60.19000000    -1.67000000
   H    104.45000000    60.24000000    -1.79000000
   N    100.47000000    55.81000000     0.29000000
   C    101.28000000    54.94000000    -0.53000000
   C    102.20000000    53.96000000     0.18000000
   O    103.25000000    54.32000000     0.71000000
   H     99.51000000    55.60000000     0.50000000
   H    101.96000000    55.52000000    -1.15000000
   H    100.65000000    54.37000000    -1.21000000
   N    101.83000000    52.68000000     0.17000000
   C    102.44000000    51.68000000     1.02000000
   C    103.05000000    50.57000000     0.17000000
   O    102.36000000    49.68000000    -0.32000000
   C    101.42000000    51.15000000     2.03000000
   C    100.61000000    52.19000000     2.76000000
   C    101.23000000    53.35000000     3.24000000
   C     99.22000000    52.11000000     2.63000000
   C    100.43000000    54.45000000     3.58000000
   C     98.44000000    53.24000000     2.92000000
   C     99.03000000    54.40000000     3.45000000
   O     98.31000000    55.46000000     3.93000000
   H    100.93000000    52.50000000    -0.26000000
   H    103.27000000    52.09000000     1.59000000
   H    101.95000000    50.55000000     2.77000000
   H    100.78000000    50.57000000     1.37000000
   H    102.30000000    53.47000000     3.29000000
   H     98.74000000    51.23000000     2.21000000
   H    100.91000000    55.31000000     4.02000000
   H     97.41000000    53.25000000     2.58000000
   H     97.39000000    55.22000000     4.05000000
   N    104.36000000    50.74000000     0.03000000
   C    105.23000000    50.18000000    -0.98000000
   C    106.60000000    49.72000000    -0.51000000
   O    107.21000000    48.87000000    -1.16000000
   C    105.55000000    51.13000000    -2.13000000
   C    104.30000000    51.29000000    -3.00000000
   C    105.97000000    52.50000000    -1.62000000
   C    104.49000000    52.07000000    -4.29000000
   H    104.89000000    51.32000000     0.66000000
   H    104.69000000    49.35000000    -1.44000000
   H    106.37000000    50.71000000    -2.71000000
   H    103.44000000    51.64000000    -2.43000000
   H    104.07000000    50.24000000    -3.23000000
   H    106.69000000    52.44000000    -0.79000000
   H    106.56000000    52.96000000    -2.42000000
   H    105.14000000    53.16000000    -1.39000000
   H    105.33000000    51.68000000    -4.86000000
   H    103.57000000    52.10000000    -4.88000000
   H    104.72000000    53.09000000    -4.00000000
   N    107.15000000    50.19000000     0.61000000
   C    108.50000000    49.85000000     1.01000000
   C    109.31000000    50.95000000     1.68000000
   O    110.51000000    50.79000000     1.92000000
   C    108.45000000    48.64000000     1.94000000
   O    108.18000000    48.96000000     3.28000000
   H    106.60000000    50.80000000     1.20000000
   H    109.06000000    49.53000000     0.14000000
   H    109.44000000    48.19000000     1.96000000
   H    107.75000000    47.91000000     1.53000000
   H    107.42000000    49.55000000     3.28000000
   N    108.74000000    52.13000000     1.95000000
   C    109.40000000    53.17000000     2.71000000
   C    109.20000000    53.13000000     4.22000000
   O    108.78000000    54.03000000     4.93000000
   C    109.25000000    54.58000000     2.13000000
   H    107.75000000    52.28000000     1.82000000
   H    110.49000000    53.14000000     2.62000000
   H    109.67000000    54.68000000     1.13000000
   H    108.19000000    54.80000000     2.21000000
   H    109.86000000    55.21000000     2.78000000
   N    109.63000000    51.93000000     4.64000000
   C    109.62000000    51.40000000     5.98000000
   C    108.28000000    51.49000000     6.71000000
   O    108.24000000    51.79000000     7.90000000
   C    110.82000000    51.98000000     6.73000000
   H    110.13000000    51.39000000     3.95000000
   H    109.70000000    50.33000000     5.80000000
   H    110.70000000    53.06000000     6.75000000
   H    110.89000000    51.61000000     7.76000000
   H    111.67000000    51.76000000     6.09000000
   N    107.20000000    51.33000000     5.94000000
   C    105.83000000    51.44000000     6.39000000
   C    104.91000000    50.23000000     6.52000000
   O    104.13000000    50.14000000     7.47000000
   C    105.11000000    52.53000000     5.61000000
   C    104.62000000    52.19000000     4.21000000
   C    105.64000000    51.73000000     3.17000000
   O    106.16000000    50.61000000     3.41000000
   O    105.76000000    52.25000000     2.05000000
   H    107.36000000    50.91000000     5.04000000
   H    105.83000000    51.85000000     7.40000000
   H    105.66000000    53.47000000     5.49000000
   H    104.23000000    52.86000000     6.17000000
   H    104.19000000    53.12000000     3.85000000
   H    103.82000000    51.44000000     4.21000000
   N    105.00000000    49.33000000     5.54000000
   C    104.46000000    47.99000000     5.55000000
   H    103.49800000    47.98300000     5.03800000
   H    105.14800000    47.31700000     5.03900000
   H    104.32500000    47.66000000     6.58000000
   H    105.68000000    49.43000000     4.80000000
  Ca    100.82800000    58.31000000     9.52000000
   O    103.31800000    59.61000000    10.50000000
   H    104.03800000    59.01000000    10.70000000
   H    103.68800000    60.25000000     9.90000000
   O    100.45800000    60.20000000     7.73000000
   H    101.08800000    60.19000000     7.01000000
   H     99.85800000    60.91000000     7.51000000
   O    100.53800000    57.16000000     6.87000000
   H    101.30800000    57.24000000     6.31000000
   H    100.02800000    56.45000000     6.49000000
   O     97.99000000    58.84000000     9.26000000
   H     97.91000000    59.80000000     9.28000000
   H     97.23000000    58.55000000     8.75000000
   O     99.57000000    55.86000000    10.10000000
   H     99.89000000    55.51000000    10.92000000
   H     99.30000000    55.10000000     9.59000000

Ca 1.00



