%chk=loop4.cluster161.chk
%nprocshared=20
%mem=10GB
%nosave
#b3lyp/svp scf=(tight,noincore,xqc) Test 
#IOP(5/87=12) Density=Current Pop=(MK,readradii) iop(6/33=2) iop(6/42=6)

loop4.cluster161 

   -3  1 
   C     65.04000000    22.13000000    65.98000000
   C     65.68000000    21.82000000    67.33000000
   O     66.18000000    22.72000000    67.99000000
   H     64.14600000    22.73500000    66.13300000
   H     65.74800000    22.67900000    65.35900000
   H     64.76800000    21.19800000    65.48400000
   N     65.67000000    20.58000000    67.82000000
   C     66.20000000    20.17000000    69.11000000
   C     65.67000000    20.86000000    70.36000000
   O     66.35000000    20.96000000    71.38000000
   C     67.72000000    20.14000000    69.06000000
   C     68.32000000    19.57000000    67.78000000
   O     69.34000000    20.11000000    67.30000000
   O     67.84000000    18.61000000    67.14000000
   H     65.21000000    19.82000000    67.33000000
   H     65.81000000    19.15000000    69.17000000
   H     68.20000000    19.59000000    69.87000000
   H     68.06000000    21.17000000    69.15000000
   N     64.41000000    21.28000000    70.33000000
   C     63.61000000    21.85000000    71.40000000
   C     63.04000000    20.72000000    72.23000000
   O     62.49000000    19.79000000    71.64000000
   C     62.58000000    22.88000000    70.94000000
   C     63.11000000    23.94000000    69.98000000
   C     62.00000000    23.57000000    72.16000000
   C     62.06000000    24.93000000    69.48000000
   H     63.95000000    21.16000000    69.44000000
   H     64.35000000    22.46000000    71.92000000
   H     61.86000000    22.24000000    70.42000000
   H     63.57000000    23.45000000    69.13000000
   H     63.97000000    24.51000000    70.34000000
   H     61.74000000    22.92000000    73.00000000
   H     62.69000000    24.37000000    72.43000000
   H     61.13000000    24.18000000    71.93000000
   H     61.93000000    25.60000000    70.33000000
   H     62.55000000    25.40000000    68.63000000
   H     61.16000000    24.57000000    68.97000000
   N     63.16000000    20.56000000    73.55000000
   C     63.75000000    21.42000000    74.56000000
   C     64.99000000    20.83000000    75.21000000
   O     65.60000000    21.55000000    76.00000000
   C     62.69000000    21.67000000    75.63000000
   C     62.03000000    20.41000000    76.17000000
   O     61.06000000    20.57000000    76.94000000
   O     62.37000000    19.27000000    75.79000000
   H     62.73000000    19.78000000    74.02000000
   H     64.08000000    22.38000000    74.17000000
   H     61.88000000    22.26000000    75.21000000
   H     63.07000000    22.22000000    76.49000000
   N     65.34000000    19.58000000    74.91000000
   C     66.61000000    19.03000000    75.34000000
   C     66.87000000    19.18000000    76.84000000
   O     66.10000000    18.70000000    77.67000000
   H     64.75000000    19.03000000    74.30000000
   H     67.34000000    19.44000000    74.65000000
   H     66.58000000    17.96000000    75.12000000
   N     68.02000000    19.78000000    77.15000000
   C     68.45000000    19.97000000    78.51000000
   C     68.50000000    21.43000000    78.97000000
   O     68.22000000    21.62000000    80.15000000
   C     69.73000000    19.20000000    78.82000000
   C     69.81000000    17.80000000    78.22000000
   O     70.70000000    17.66000000    77.35000000
   O     69.03000000    16.88000000    78.52000000
   H     68.57000000    20.12000000    76.37000000
   H     67.74000000    19.44000000    79.14000000
   H     69.88000000    19.16000000    79.90000000
   H     70.58000000    19.74000000    78.42000000
   N     68.64000000    22.35000000    78.02000000
   C     68.08000000    23.67000000    78.25000000
   C     69.10000000    24.78000000    78.46000000
   O     68.78000000    25.97000000    78.58000000
   H     69.03000000    22.13000000    77.11000000
   H     67.34000000    23.61000000    79.05000000
   H     67.62000000    23.80000000    77.27000000
   N     70.38000000    24.42000000    78.50000000
   C     71.56000000    25.26000000    78.60000000
   C     71.54000000    26.40000000    77.60000000
   O     71.85000000    27.55000000    77.89000000
   C     71.83000000    25.56000000    80.07000000
   C     72.02000000    24.38000000    81.02000000
   C     72.50000000    24.80000000    82.40000000
   N     73.09000000    23.90000000    83.19000000
   O     72.52000000    25.99000000    82.71000000
   H     70.52000000    23.42000000    78.43000000
   H     72.40000000    24.61000000    78.36000000
   H     71.00000000    26.12000000    80.51000000
   H     72.81000000    26.05000000    80.10000000
   H     72.80000000    23.72000000    80.65000000
   H     71.06000000    23.87000000    81.12000000
   H     72.95000000    22.95000000    82.89000000
   H     73.26000000    24.17000000    84.15000000
   N     71.07000000    26.16000000    76.37000000
   C     71.19000000    27.04000000    75.22000000
   C     72.58000000    27.10000000    74.62000000
   O     73.39000000    26.22000000    74.90000000
   C     70.10000000    26.65000000    74.22000000
   C     70.37000000    25.25000000    73.67000000
   C     68.61000000    26.81000000    74.50000000
   H     70.88000000    25.21000000    76.10000000
   H     70.96000000    28.01000000    75.66000000
   H     70.26000000    27.27000000    73.34000000
   H     69.77000000    25.07000000    72.78000000
   H     71.41000000    25.03000000    73.45000000
   H     69.94000000    24.58000000    74.42000000
   H     68.29000000    26.31000000    75.42000000
   H     68.40000000    27.88000000    74.60000000
   H     68.06000000    26.38000000    73.67000000
   N     72.77000000    27.93000000    73.59000000
   C     74.05000000    28.16000000    72.94000000
   C     73.83000000    28.54000000    71.48000000
   O     72.73000000    28.87000000    71.03000000
   C     74.76000000    29.26000000    73.72000000
   C     76.18000000    29.41000000    73.19000000
   N     76.91000000    28.29000000    73.20000000
   O     76.69000000    30.43000000    72.73000000
   H     72.11000000    28.68000000    73.46000000
   H     74.58000000    27.21000000    72.93000000
   H     74.81000000    29.10000000    74.79000000
   H     74.14000000    30.10000000    73.43000000
   H     76.44000000    27.47000000    73.54000000
   H     77.87000000    28.26000000    72.87000000
   N     74.91000000    28.56000000    70.69000000
   C     75.00000000    28.99000000    69.31000000
   C     75.92000000    28.07000000    68.52000000
   O     77.03000000    27.84000000    69.01000000
   C     75.41000000    30.46000000    69.25000000
   C     75.47000000    31.12000000    67.90000000
   C     74.32000000    31.07000000    67.11000000
   C     76.55000000    31.97000000    67.61000000
   C     74.37000000    31.57000000    65.80000000
   C     76.58000000    32.47000000    66.31000000
   C     75.55000000    32.21000000    65.38000000
   O     75.72000000    32.94000000    64.24000000
   H     75.80000000    28.53000000    71.15000000
   H     74.00000000    28.92000000    68.87000000
   H     76.42000000    30.57000000    69.66000000
   H     74.73000000    31.12000000    69.78000000
   H     73.43000000    30.56000000    67.47000000
   H     77.35000000    32.08000000    68.33000000
   H     73.46000000    31.68000000    65.23000000
   H     77.40000000    33.08000000    65.96000000
   H     76.58000000    33.35000000    64.14000000
   N     75.51000000    27.54000000    67.37000000
   C     76.38000000    26.87000000    66.42000000
   C     76.44000000    27.51000000    65.04000000
   O     77.47000000    28.13000000    64.78000000
   C     76.12000000    25.37000000    66.45000000
   C     77.25000000    24.40000000    66.10000000
   C     78.46000000    24.64000000    66.98000000
   O     78.49000000    24.23000000    68.16000000
   O     79.47000000    25.08000000    66.38000000
   H     74.51000000    27.51000000    67.21000000
   H     77.38000000    27.03000000    66.83000000
   H     75.24000000    25.14000000    65.85000000
   H     75.70000000    25.07000000    67.41000000
   H     77.56000000    24.60000000    65.07000000
   H     76.92000000    23.36000000    66.08000000
   N     75.46000000    27.61000000    64.14000000
   C     74.14000000    27.08000000    64.38000000
   C     73.02000000    28.08000000    64.11000000
   O     73.33000000    29.16000000    63.62000000
   C     73.99000000    25.84000000    63.50000000
   C     73.65000000    26.00000000    62.02000000
   C     73.83000000    24.67000000    61.29000000
   O     73.08000000    23.72000000    61.56000000
   O     74.77000000    24.46000000    60.50000000
   H     75.65000000    28.08000000    63.26000000
   H     74.05000000    26.78000000    65.42000000
   H     73.13000000    25.26000000    63.82000000
   H     74.83000000    25.19000000    63.72000000
   H     74.43000000    26.69000000    61.68000000
   H     72.68000000    26.48000000    61.90000000
   N     71.78000000    27.78000000    64.51000000
   C     70.62000000    28.64000000    64.40000000
   H     69.80100000    28.22100000    64.98400000
   H     70.86500000    29.63200000    64.77900000
   H     70.32000000    28.71400000    63.35500000
   H     71.65000000    26.86000000    64.90000000
  Ca     68.94000000    19.09000000    64.74000000
   O     71.46000000    20.03000000    64.30000000
   H     71.93000000    19.86000000    63.49000000
   H     72.10000000    20.45000000    64.87000000
   O     70.50000000    17.30000000    66.00000000
   H     70.67000000    16.36000000    66.05000000
   H     71.26000000    17.71000000    66.40000000
   O     69.20000000    20.26000000    62.38000000
   H     69.18000000    19.79000000    61.54000000
   H     69.28000000    21.18000000    62.14000000

Ca 1.00



