%chk=loop2.cluster89.chk
%nprocshared=20
%mem=10GB
%nosave
#b3lyp/svp scf=(tight,noincore,xqc) Test 
#IOP(5/87=12) Density=Current Pop=(MK,readradii) iop(6/33=2) iop(6/42=6)

loop2.cluster89 

   -2  1 
   C    106.46000000    69.34000000    -0.16000000
   C    104.96000000    69.48000000     0.09000000
   O    104.38000000    68.40000000     0.22000000
   H    107.00000000    69.49600000     0.77400000
   H    106.67400000    68.34100000    -0.54000000
   H    106.77800000    70.08300000    -0.89100000
   N    104.24000000    70.59000000     0.26000000
   C    104.68000000    71.95000000     0.43000000
   C    104.12000000    72.87000000    -0.64000000
   O    103.20000000    72.61000000    -1.41000000
   C    104.29000000    72.38000000     1.84000000
   C    102.81000000    72.10000000     2.11000000
   O    101.95000000    71.83000000     1.25000000
   O    102.50000000    72.10000000     3.32000000
   H    103.24000000    70.44000000     0.37000000
   H    105.74000000    71.87000000     0.19000000
   H    104.59000000    73.42000000     1.94000000
   H    104.84000000    71.83000000     2.61000000
   N    104.74000000    74.05000000    -0.72000000
   C    104.41000000    75.18000000    -1.56000000
   C    103.16000000    75.89000000    -1.04000000
   O    103.24000000    76.65000000    -0.07000000
   C    104.49000000    74.89000000    -3.05000000
   H    105.46000000    74.19000000    -0.02000000
   H    105.24000000    75.88000000    -1.47000000
   H    104.11000000    75.81000000    -3.50000000
   H    105.50000000    74.64000000    -3.37000000
   H    103.75000000    74.16000000    -3.38000000
   N    101.99000000    75.58000000    -1.59000000
   C    100.69000000    76.12000000    -1.25000000
   C    100.29000000    75.42000000     0.04000000
   O    100.54000000    74.22000000     0.16000000
   C     99.69000000    75.98000000    -2.39000000
   C     99.65000000    74.60000000    -3.04000000
   O    100.51000000    73.72000000    -2.83000000
   O     98.68000000    74.41000000    -3.80000000
   H    102.04000000    74.89000000    -2.33000000
   H    100.76000000    77.20000000    -1.11000000
   H     99.89000000    76.61000000    -3.26000000
   H     98.69000000    76.27000000    -2.07000000
   N     99.69000000    76.15000000     0.97000000
   C     99.37000000    75.78000000     2.34000000
   C     97.91000000    75.45000000     2.60000000
   O     97.04000000    76.10000000     2.01000000
   H     99.45000000    77.10000000     0.70000000
   H     99.60000000    76.64000000     2.96000000
   H     99.96000000    74.92000000     2.67000000
   N     97.65000000    74.57000000     3.58000000
   C     96.30000000    74.27000000     4.01000000
   C     96.18000000    74.05000000     5.51000000
   O     97.15000000    73.71000000     6.19000000
   C     96.03000000    72.89000000     3.42000000
   C     95.69000000    72.93000000     1.94000000
   N     94.61000000    73.61000000     1.56000000
   O     96.42000000    72.38000000     1.11000000
   H     98.35000000    74.06000000     4.10000000
   H     95.62000000    75.03000000     3.63000000
   H     95.18000000    72.44000000     3.94000000
   H     96.88000000    72.25000000     3.65000000
   H     93.88000000    73.87000000     2.21000000
   H     94.42000000    73.74000000     0.58000000
   N     95.00000000    74.28000000     6.09000000
   C     94.85000000    74.32000000     7.53000000
   C     93.41000000    74.59000000     7.95000000
   O     92.68000000    75.23000000     7.20000000
   H     94.20000000    74.53000000     5.53000000
   H     95.57000000    75.07000000     7.87000000
   H     95.23000000    73.36000000     7.89000000
   N     92.90000000    74.12000000     9.09000000
   C     93.56000000    73.45000000    10.19000000
   C     93.52000000    71.93000000    10.07000000
   O     94.30000000    71.25000000    10.73000000
   C     92.99000000    73.88000000    11.54000000
   C     93.33000000    75.32000000    11.89000000
   O     91.60000000    74.12000000    11.44000000
   H     91.93000000    74.29000000     9.31000000
   H     94.59000000    73.78000000    10.31000000
   H     93.24000000    73.18000000    12.34000000
   H     91.19000000    73.35000000    11.85000000
   H     93.12000000    76.03000000    11.09000000
   H     92.88000000    75.78000000    12.77000000
   H     94.40000000    75.25000000    12.11000000
   N     92.71000000    71.36000000     9.18000000
   C     92.68000000    69.96000000     8.81000000
   C     91.75000000    69.21000000     9.76000000
   O     92.13000000    68.76000000    10.83000000
   C     94.07000000    69.36000000     8.59000000
   C     95.08000000    70.19000000     7.81000000
   C     93.87000000    68.00000000     7.92000000
   C     94.62000000    70.87000000     6.52000000
   H     91.99000000    71.89000000     8.71000000
   H     92.17000000    70.01000000     7.85000000
   H     94.50000000    69.15000000     9.57000000
   H     95.95000000    69.59000000     7.53000000
   H     95.61000000    70.84000000     8.51000000
   H     93.22000000    67.34000000     8.50000000
   H     93.62000000    68.06000000     6.86000000
   H     94.86000000    67.55000000     7.89000000
   H     94.08000000    70.13000000     5.93000000
   H     93.93000000    71.71000000     6.63000000
   H     95.43000000    71.20000000     5.86000000
   N     90.48000000    69.03000000     9.37000000
   C     89.90000000    68.97000000     8.05000000
   C     90.47000000    67.80000000     7.25000000
   O     90.99000000    67.96000000     6.15000000
   C     88.38000000    68.93000000     8.08000000
   C     87.70000000    67.93000000     8.99000000
   O     88.38000000    67.27000000     9.81000000
   O     86.45000000    67.89000000     8.95000000
   H     89.86000000    68.78000000    10.13000000
   H     90.23000000    69.89000000     7.56000000
   H     88.00000000    68.76000000     7.07000000
   H     87.92000000    69.89000000     8.34000000
   N     90.45000000    66.65000000     7.92000000
   C     90.73000000    65.35000000     7.35000000
   C     89.51000000    64.60000000     6.83000000
   O     88.45000000    64.66000000     7.45000000
   C     91.46000000    64.55000000     8.43000000
   C     90.61000000    64.01000000     9.55000000
   C     90.21000000    64.95000000    10.51000000
   C     90.07000000    62.72000000     9.57000000
   C     89.54000000    64.52000000    11.67000000
   C     89.23000000    62.34000000    10.62000000
   C     89.07000000    63.20000000    11.71000000
   H     89.88000000    66.63000000     8.75000000
   H     91.45000000    65.40000000     6.53000000
   H     92.17000000    65.21000000     8.93000000
   H     91.97000000    63.69000000     7.99000000
   H     90.51000000    65.98000000    10.48000000
   H     90.21000000    62.03000000     8.75000000
   H     89.30000000    65.22000000    12.46000000
   H     88.92000000    61.31000000    10.56000000
   H     88.62000000    62.77000000    12.59000000
   N     89.66000000    63.70000000     5.85000000
   C     90.86000000    63.40000000     5.10000000
   C     91.31000000    64.56000000     4.23000000
   O     90.69000000    65.62000000     4.22000000
   C     90.45000000    62.27000000     4.16000000
   C     89.21000000    61.64000000     4.80000000
   C     88.56000000    62.86000000     5.44000000
   H     91.64000000    63.09000000     5.80000000
   H     90.25000000    62.67000000     3.17000000
   H     91.25000000    61.53000000     4.18000000
   H     88.42000000    61.28000000     4.13000000
   H     89.37000000    61.00000000     5.66000000
   H     87.92000000    63.53000000     4.85000000
   H     88.05000000    62.47000000     6.32000000
   N     92.32000000    64.34000000     3.39000000
   C     92.70000000    65.16000000     2.25000000
   C     94.21000000    65.13000000     2.06000000
   O     94.71000000    65.16000000     0.94000000
   C     91.94000000    64.67000000     1.02000000
   C     90.46000000    65.05000000     1.01000000
   C     90.25000000    66.52000000     0.70000000
   O     89.96000000    67.28000000     1.65000000
   O     90.63000000    67.02000000    -0.38000000
   H     92.73000000    63.42000000     3.48000000
   H     92.38000000    66.19000000     2.36000000
   H     92.15000000    63.60000000     1.01000000
   H     92.40000000    65.11000000     0.13000000
   H     90.08000000    64.77000000     1.99000000
   H     89.84000000    64.48000000     0.30000000
   N     95.16000000    64.89000000     2.97000000
   C     95.03000000    64.56000000     4.38000000
   H     93.97400000    64.47100000     4.63600000
   H     95.53300000    63.61400000     4.58000000
   H     95.48400000    65.34800000     4.98100000
   H     96.06000000    64.81000000     2.52000000
  Ca    100.65300000    71.87000000    -0.93300000
   O     98.31000000    70.13000000    -1.36300000
   H     98.39000000    69.17000000    -1.36300000
   H     97.38000000    70.29000000    -1.48300000
   O     98.99000000    71.69000000     1.00000000
   H     99.39000000    71.69000000     1.87000000
   H     98.06000000    71.81000000     1.16000000
   O    101.53300000    71.09000000    -3.49300000
   H    101.08300000    70.81000000    -4.29300000
   H    102.27300000    71.61000000    -3.81300000
   O    101.54300000    69.38000000    -0.76300000
   H    102.24300000    69.00000000    -1.30300000
   H    101.47300000    68.80000000    -0.01300000
   O     97.79000000    73.21000000    -1.07300000
   H     97.40000000    74.05000000    -1.33300000
   H     97.31000000    72.96000000    -0.28300000

Ca 1.00



