%chk=loop4.cluster94.chk
%nprocshared=20
%mem=10GB
%nosave
#b3lyp/svp scf=(tight,noincore,xqc) Test 
#IOP(5/87=12) Density=Current Pop=(MK,readradii) iop(6/33=2) iop(6/42=6)

loop4.cluster94 

   -3  1 
   C     46.76000000    33.18000000    44.44000000
   C     46.90000000    32.53000000    45.81000000
   O     47.52000000    33.05000000    46.74000000
   H     46.16500000    34.08900000    44.52900000
   H     47.74800000    33.42900000    44.05300000
   H     46.26600000    32.48800000    43.75800000
   N     46.15000000    31.46000000    46.09000000
   C     46.24000000    30.65000000    47.29000000
   C     45.96000000    31.38000000    48.59000000
   O     46.58000000    31.14000000    49.63000000
   C     47.57000000    29.89000000    47.32000000
   C     47.66000000    28.86000000    46.19000000
   O     48.19000000    29.13000000    45.09000000
   O     47.16000000    27.74000000    46.43000000
   H     45.59000000    31.06000000    45.35000000
   H     45.40000000    29.96000000    47.20000000
   H     47.66000000    29.35000000    48.26000000
   H     48.44000000    30.54000000    47.31000000
   N     45.14000000    32.44000000    48.63000000
   C     44.77000000    33.26000000    49.76000000
   C     44.15000000    32.31000000    50.77000000
   O     43.32000000    31.49000000    50.41000000
   C     43.78000000    34.34000000    49.32000000
   C     44.16000000    35.31000000    48.20000000
   C     43.36000000    35.22000000    50.49000000
   C     42.93000000    35.88000000    47.50000000
   H     44.68000000    32.70000000    47.76000000
   H     45.69000000    33.65000000    50.19000000
   H     42.84000000    33.85000000    49.06000000
   H     44.68000000    34.76000000    47.42000000
   H     44.82000000    36.07000000    48.62000000
   H     43.03000000    34.71000000    51.39000000
   H     44.27000000    35.76000000    50.78000000
   H     42.68000000    36.03000000    50.22000000
   H     43.17000000    36.85000000    47.06000000
   H     42.60000000    35.33000000    46.62000000
   H     42.03000000    36.08000000    48.07000000
   N     44.34000000    32.46000000    52.09000000
   C     45.00000000    33.49000000    52.87000000
   C     46.38000000    33.16000000    53.40000000
   O     46.99000000    34.07000000    53.96000000
   C     44.08000000    33.89000000    54.02000000
   C     43.87000000    32.82000000    55.08000000
   O     43.73000000    33.24000000    56.25000000
   O     43.63000000    31.65000000    54.72000000
   H     44.27000000    31.55000000    52.53000000
   H     45.08000000    34.40000000    52.29000000
   H     43.13000000    34.09000000    53.52000000
   H     44.40000000    34.87000000    54.36000000
   N     46.92000000    31.95000000    53.28000000
   C     48.26000000    31.48000000    53.61000000
   C     48.54000000    31.58000000    55.10000000
   O     47.74000000    31.01000000    55.84000000
   H     46.42000000    31.27000000    52.72000000
   H     49.04000000    32.09000000    53.15000000
   H     48.41000000    30.43000000    53.38000000
   N     49.58000000    32.28000000    55.56000000
   C     49.82000000    32.49000000    56.97000000
   C     49.16000000    33.76000000    57.50000000
   O     49.26000000    34.02000000    58.70000000
   C     51.31000000    32.50000000    57.29000000
   C     52.15000000    33.44000000    56.44000000
   O     52.29000000    33.24000000    55.22000000
   O     52.67000000    34.46000000    56.95000000
   H     50.31000000    32.59000000    54.93000000
   H     49.43000000    31.59000000    57.44000000
   H     51.66000000    31.50000000    57.04000000
   H     51.48000000    32.75000000    58.34000000
   N     48.67000000    34.65000000    56.64000000
   C     48.30000000    36.02000000    56.91000000
   C     49.42000000    37.06000000    56.99000000
   O     49.15000000    38.25000000    56.90000000
   H     48.77000000    34.42000000    55.66000000
   H     47.84000000    36.05000000    57.90000000
   H     47.59000000    36.34000000    56.15000000
   N     50.65000000    36.67000000    57.31000000
   C     51.85000000    37.49000000    57.21000000
   C     52.30000000    37.93000000    55.82000000
   O     53.01000000    38.91000000    55.65000000
   C     51.93000000    38.65000000    58.19000000
   C     51.48000000    38.35000000    59.62000000
   C     51.89000000    39.45000000    60.58000000
   N     53.15000000    39.57000000    61.00000000
   O     51.11000000    40.23000000    61.14000000
   H     50.87000000    35.69000000    57.27000000
   H     52.71000000    36.91000000    57.55000000
   H     51.30000000    39.48000000    57.86000000
   H     52.97000000    38.97000000    58.30000000
   H     51.97000000    37.45000000    60.00000000
   H     50.39000000    38.31000000    59.60000000
   H     53.85000000    38.91000000    60.68000000
   H     53.38000000    40.21000000    61.74000000
   N     51.95000000    37.11000000    54.83000000
   C     52.09000000    37.44000000    53.43000000
   C     53.47000000    36.96000000    53.00000000
   O     53.77000000    35.77000000    52.99000000
   C     51.03000000    36.90000000    52.48000000
   C     49.64000000    37.35000000    52.92000000
   C     51.14000000    37.49000000    51.08000000
   H     51.50000000    36.24000000    55.07000000
   H     51.94000000    38.52000000    53.36000000
   H     51.10000000    35.82000000    52.39000000
   H     48.90000000    37.15000000    52.15000000
   H     49.36000000    36.92000000    53.89000000
   H     49.61000000    38.43000000    52.95000000
   H     50.46000000    37.11000000    50.31000000
   H     50.94000000    38.57000000    51.05000000
   H     52.17000000    37.25000000    50.83000000
   N     54.31000000    37.86000000    52.47000000
   C     55.73000000    37.65000000    52.28000000
   C     56.10000000    37.90000000    50.83000000
   O     55.65000000    38.91000000    50.27000000
   C     56.56000000    38.44000000    53.28000000
   C     58.06000000    38.55000000    53.02000000
   N     58.76000000    37.42000000    52.91000000
   O     58.59000000    39.66000000    53.07000000
   H     54.01000000    38.82000000    52.36000000
   H     56.03000000    36.61000000    52.46000000
   H     56.31000000    38.08000000    54.27000000
   H     56.12000000    39.43000000    53.39000000
   H     58.38000000    36.49000000    52.94000000
   H     59.76000000    37.53000000    53.01000000
   N     56.95000000    37.10000000    50.19000000
   C     57.47000000    37.29000000    48.85000000
   C     57.75000000    35.99000000    48.10000000
   O     58.77000000    35.80000000    47.44000000
   C     58.70000000    38.16000000    49.08000000
   C     59.19000000    38.91000000    47.86000000
   C     60.29000000    39.75000000    48.05000000
   C     58.71000000    38.78000000    46.55000000
   C     60.78000000    40.57000000    47.03000000
   C     59.27000000    39.48000000    45.48000000
   C     60.24000000    40.46000000    45.74000000
   O     60.69000000    41.21000000    44.69000000
   H     57.41000000    36.34000000    50.68000000
   H     56.73000000    37.85000000    48.28000000
   H     59.48000000    37.57000000    49.56000000
   H     58.53000000    38.92000000    49.84000000
   H     60.69000000    39.96000000    49.03000000
   H     57.84000000    38.15000000    46.39000000
   H     61.47000000    41.31000000    47.42000000
   H     58.93000000    39.51000000    44.45000000
   H     60.21000000    41.11000000    43.86000000
   N     57.02000000    34.94000000    48.46000000
   C     57.33000000    33.58000000    48.07000000
   C     57.24000000    33.27000000    46.58000000
   O     58.12000000    32.57000000    46.08000000
   C     56.52000000    32.56000000    48.88000000
   C     57.05000000    31.15000000    48.65000000
   C     56.44000000    30.21000000    49.68000000
   O     56.46000000    30.60000000    50.87000000
   O     55.96000000    29.11000000    49.33000000
   H     56.25000000    35.02000000    49.11000000
   H     58.34000000    33.43000000    48.45000000
   H     55.48000000    32.70000000    48.60000000
   H     56.66000000    32.93000000    49.90000000
   H     58.14000000    31.12000000    48.64000000
   H     56.84000000    30.81000000    47.63000000
   N     56.25000000    33.64000000    45.76000000
   C     55.00000000    34.30000000    46.05000000
   C     54.72000000    35.51000000    45.16000000
   O     55.65000000    35.96000000    44.50000000
   C     53.90000000    33.25000000    45.94000000
   C     53.78000000    32.67000000    44.54000000
   C     52.77000000    31.53000000    44.57000000
   O     51.57000000    31.72000000    44.87000000
   O     53.03000000    30.38000000    44.17000000
   H     56.31000000    33.49000000    44.77000000
   H     54.92000000    34.62000000    47.09000000
   H     52.95000000    33.70000000    46.23000000
   H     54.18000000    32.43000000    46.60000000
   H     54.72000000    32.21000000    44.23000000
   H     53.57000000    33.48000000    43.85000000
   N     53.47000000    35.97000000    45.09000000
   C     53.09000000    37.03000000    44.17000000
   H     52.21000000    37.54500000    44.55400000
   H     53.91200000    37.73900000    44.07200000
   H     52.86200000    36.60100000    43.19400000
   H     52.76000000    35.58000000    45.69000000
  Ca     50.47000000    29.64000000    43.96000000
   O     51.32000000    31.32000000    41.65000000
   H     51.31000000    32.27000000    41.74000000
   H     50.90000000    31.15000000    40.80000000
   O     52.37000000    28.26000000    42.30000000
   H     52.26000000    27.36000000    41.99000000
   H     52.75000000    28.73000000    41.56000000
   O     50.75000000    27.14000000    44.76000000
   H     50.96000000    26.33000000    44.29000000
   H     50.29000000    26.85000000    45.54000000
   O     51.00000000    29.74000000    46.72000000
   H     51.29000000    30.61000000    47.01000000
   H     51.60000000    29.13000000    47.14000000
   O     49.08000000    28.10000000    41.99000000
   H     48.72000000    27.26000000    42.29000000
   H     48.69000000    28.23000000    41.12000000

Ca 1.00



