%chk=loop2.cluster151.chk
%nprocshared=20
%mem=10GB
%nosave
#b3lyp/svp scf=(tight,noincore,xqc) Test 
#IOP(5/87=12) Density=Current Pop=(MK,readradii) iop(6/33=2) iop(6/42=6)

loop2.cluster151 

   -2  1 
   C     53.26000000    47.66000000    19.59000000
   C     54.13000000    47.81000000    18.36000000
   O     53.88000000    47.22000000    17.31000000
   H     52.28300000    47.27500000    19.29800000
   H     53.73100000    46.96600000    20.28600000
   H     53.13900000    48.63100000    20.07000000
   N     55.15000000    48.68000000    18.40000000
   C     55.98000000    49.01000000    17.26000000
   C     55.26000000    50.03000000    16.39000000
   O     55.06000000    51.15000000    16.84000000
   C     57.35000000    49.47000000    17.73000000
   C     58.30000000    49.16000000    16.58000000
   O     58.58000000    47.97000000    16.34000000
   O     58.77000000    50.07000000    15.85000000
   H     55.41000000    49.20000000    19.22000000
   H     56.07000000    48.15000000    16.59000000
   H     57.67000000    48.89000000    18.59000000
   H     57.34000000    50.56000000    17.83000000
   N     54.75000000    49.62000000    15.22000000
   C     53.96000000    50.50000000    14.38000000
   C     52.85000000    49.75000000    13.66000000
   O     53.01000000    48.58000000    13.33000000
   C     54.86000000    51.22000000    13.37000000
   H     54.66000000    48.63000000    15.02000000
   H     53.42000000    51.18000000    15.04000000
   H     55.75000000    50.65000000    13.13000000
   H     54.22000000    51.40000000    12.51000000
   H     55.16000000    52.22000000    13.68000000
   N     51.69000000    50.34000000    13.34000000
   C     51.32000000    51.71000000    13.60000000
   C     50.57000000    51.89000000    14.91000000
   O     49.88000000    51.00000000    15.42000000
   C     50.54000000    52.25000000    12.40000000
   C     49.12000000    51.72000000    12.26000000
   O     48.90000000    50.50000000    12.10000000
   O     48.16000000    52.52000000    12.23000000
   H     51.24000000    49.73000000    12.68000000
   H     52.26000000    52.27000000    13.59000000
   H     51.13000000    51.93000000    11.54000000
   H     50.49000000    53.34000000    12.41000000
   N     50.65000000    53.05000000    15.57000000
   C     49.76000000    53.57000000    16.59000000
   C     50.56000000    54.54000000    17.44000000
   O     51.79000000    54.51000000    17.39000000
   H     51.45000000    53.61000000    15.34000000
   H     49.42000000    52.80000000    17.28000000
   H     49.02000000    54.13000000    16.01000000
   N     49.93000000    55.44000000    18.20000000
   C     48.52000000    55.73000000    18.35000000
   C     47.90000000    54.96000000    19.50000000
   O     46.75000000    55.22000000    19.83000000
   C     48.43000000    57.25000000    18.41000000
   C     49.01000000    57.86000000    17.14000000
   N     50.24000000    58.37000000    17.18000000
   O     48.43000000    57.85000000    16.05000000
   H     50.54000000    55.85000000    18.89000000
   H     48.02000000    55.35000000    17.45000000
   H     48.94000000    57.62000000    19.30000000
   H     47.37000000    57.49000000    18.49000000
   H     50.64000000    58.57000000    18.08000000
   H     50.84000000    58.54000000    16.38000000
   N     48.54000000    54.00000000    20.17000000
   C     47.93000000    53.24000000    21.25000000
   C     46.97000000    52.13000000    20.83000000
   O     47.06000000    51.03000000    21.38000000
   H     49.51000000    53.81000000    19.96000000
   H     47.47000000    53.93000000    21.95000000
   H     48.78000000    52.80000000    21.76000000
   N     46.09000000    52.35000000    19.86000000
   C     45.05000000    51.41000000    19.47000000
   C     45.42000000    50.50000000    18.31000000
   O     46.09000000    50.90000000    17.35000000
   C     43.83000000    52.19000000    18.99000000
   C     43.13000000    52.89000000    20.15000000
   O     44.23000000    53.19000000    18.07000000
   H     46.05000000    53.25000000    19.40000000
   H     44.75000000    50.80000000    20.33000000
   H     43.11000000    51.51000000    18.54000000
   H     43.58000000    53.31000000    17.37000000
   H     43.08000000    52.28000000    21.06000000
   H     43.61000000    53.85000000    20.33000000
   H     42.12000000    53.04000000    19.79000000
   N     45.01000000    49.24000000    18.38000000
   C     45.09000000    48.18000000    17.39000000
   C     43.81000000    47.78000000    16.68000000
   O     42.72000000    48.06000000    17.18000000
   C     45.68000000    46.88000000    17.94000000
   C     47.17000000    47.00000000    18.25000000
   C     44.94000000    46.46000000    19.20000000
   C     47.92000000    45.77000000    18.76000000
   H     44.65000000    48.98000000    19.29000000
   H     45.77000000    48.58000000    16.64000000
   H     45.67000000    46.18000000    17.11000000
   H     47.27000000    47.82000000    18.97000000
   H     47.73000000    47.29000000    17.37000000
   H     45.11000000    47.14000000    20.04000000
   H     43.91000000    46.26000000    18.92000000
   H     45.26000000    45.45000000    19.46000000
   H     47.74000000    45.07000000    17.95000000
   H     48.98000000    46.02000000    18.79000000
   H     47.51000000    45.45000000    19.72000000
   N     44.00000000    47.24000000    15.47000000
   C     42.91000000    46.88000000    14.60000000
   C     43.29000000    45.64000000    13.80000000
   O     44.29000000    45.70000000    13.08000000
   C     42.45000000    47.97000000    13.64000000
   C     43.56000000    48.90000000    13.17000000
   O     44.02000000    49.90000000    13.77000000
   O     44.14000000    48.63000000    12.09000000
   H     44.95000000    47.04000000    15.16000000
   H     42.04000000    46.55000000    15.18000000
   H     41.75000000    48.63000000    14.16000000
   H     41.93000000    47.50000000    12.81000000
   N     42.46000000    44.59000000    13.75000000
   C     42.56000000    43.46000000    12.86000000
   C     43.69000000    42.55000000    13.34000000
   O     43.58000000    42.18000000    14.51000000
   C     41.20000000    42.79000000    12.77000000
   C     41.19000000    41.48000000    12.02000000
   C     41.29000000    40.29000000    12.76000000
   C     41.24000000    41.52000000    10.62000000
   C     41.52000000    39.13000000    12.01000000
   C     41.32000000    40.32000000     9.90000000
   C     41.41000000    39.12000000    10.62000000
   H     41.76000000    44.47000000    14.47000000
   H     42.86000000    43.78000000    11.86000000
   H     40.58000000    43.59000000    12.36000000
   H     40.88000000    42.68000000    13.80000000
   H     41.28000000    40.28000000    13.84000000
   H     41.10000000    42.47000000    10.14000000
   H     41.64000000    38.17000000    12.49000000
   H     41.33000000    40.19000000     8.83000000
   H     41.27000000    38.15000000    10.15000000
   N     44.67000000    42.18000000    12.52000000
   C     45.62000000    41.13000000    12.84000000
   C     46.93000000    41.59000000    13.45000000
   O     47.97000000    40.94000000    13.38000000
   C     45.78000000    40.44000000    11.49000000
   C     45.85000000    41.64000000    10.56000000
   C     44.91000000    42.67000000    11.18000000
   H     45.19000000    40.39000000    13.52000000
   H     46.66000000    39.80000000    11.45000000
   H     44.93000000    39.77000000    11.33000000
   H     46.84000000    42.10000000    10.54000000
   H     45.53000000    41.34000000     9.56000000
   H     45.37000000    43.65000000    11.26000000
   H     43.99000000    42.61000000    10.60000000
   N     46.86000000    42.78000000    14.05000000
   C     48.04000000    43.46000000    14.53000000
   C     48.54000000    43.06000000    15.91000000
   O     49.68000000    43.26000000    16.33000000
   C     47.65000000    44.93000000    14.48000000
   C     47.67000000    45.41000000    13.03000000
   C     47.30000000    46.87000000    12.84000000
   O     46.86000000    47.52000000    13.81000000
   O     47.53000000    47.44000000    11.75000000
   H     45.98000000    43.28000000    14.00000000
   H     48.83000000    43.28000000    13.80000000
   H     48.43000000    45.54000000    14.94000000
   H     46.70000000    45.15000000    14.98000000
   H     46.96000000    44.79000000    12.48000000
   H     48.66000000    45.23000000    12.61000000
   N     47.69000000    42.38000000    16.68000000
   C     48.08000000    41.80000000    17.95000000
   H     48.93900000    42.34100000    18.34700000
   H     47.25000000    41.87100000    18.65300000
   H     48.34500000    40.75300000    17.80600000
   H     46.86000000    42.04000000    16.22000000
  Ca     46.46000000    49.91000000    12.62000000
   O     45.66000000    50.59000000    10.10000000
   H     44.72000000    50.73000000    10.17000000
   H     45.85000000    50.68000000     9.17000000
   O     45.35000000    52.42000000    12.80000000
   H     45.79000000    53.15000000    12.36000000
   H     44.43000000    52.67000000    12.84000000
   O     47.32000000    50.50000000    15.13000000
   H     47.00000000    50.76000000    15.99000000
   H     48.27000000    50.57000000    15.19000000

Ca 1.00



