%chk=loop3.cluster22.chk
%nprocshared=20
%mem=10GB
%nosave
#b3lyp/svp scf=(tight,noincore,xqc) Test 
#IOP(5/87=12) Density=Current Pop=(MK,readradii) iop(6/33=2) iop(6/42=6)

loop3.cluster22 

   0  1 
   C     93.72000000    39.45000000     5.68300000
   C     94.30000000    39.19000000     7.06300000
   O     95.43000000    38.71000000     7.18300000
   H     92.83300000    40.07600000     5.77500000
   H     94.46100000    39.95900000     5.06700000
   H     93.44900000    38.50200000     5.21800000
   N     93.55000000    39.63000000     8.07300000
   C     93.90000000    39.49000000     9.47300000
   C     93.31000000    38.18000000     9.96300000
   O     92.12000000    37.90000000     9.86300000
   C     93.51000000    40.77000000    10.20300000
   C     94.05000000    40.70000000    11.62300000
   O     94.97000000    39.91000000    11.91300000
   O     93.57000000    41.54000000    12.41300000
   H     92.72000000    40.18000000     7.89300000
   H     94.99000000    39.42000000     9.55300000
   H     92.42000000    40.85000000    10.16300000
   H     93.81000000    41.74000000     9.80300000
   N     94.15000000    37.33000000    10.56300000
   C     93.81000000    35.96000000    10.84300000
   C     93.23000000    35.74000000    12.23300000
   O     92.28000000    34.97000000    12.38300000
   C     95.03000000    35.08000000    10.57300000
   C     95.42000000    35.12000000     9.09300000
   C     94.35000000    34.63000000     8.12300000
   C     94.71000000    34.48000000     6.65300000
   N     93.45000000    34.16000000     5.95300000
   H     95.06000000    37.65000000    10.87300000
   H     93.01000000    35.61000000    10.18300000
   H     94.71000000    34.05000000    10.74300000
   H     95.86000000    35.41000000    11.20300000
   H     96.31000000    34.50000000     8.97300000
   H     95.70000000    36.13000000     8.79300000
   H     93.55000000    35.36000000     8.16300000
   H     94.02000000    33.68000000     8.56300000
   H     95.43000000    33.70000000     6.39300000
   H     95.11000000    35.41000000     6.25300000
   H     93.60000000    34.18000000     4.95300000
   H     93.09000000    33.27000000     6.27300000
   H     92.71000000    34.81000000     6.15300000
   N     93.91000000    36.33000000    13.22300000
   C     93.33000000    36.49000000    14.54300000
   C     92.32000000    37.62000000    14.71300000
   O     91.71000000    37.65000000    15.77300000
   C     94.43000000    36.51000000    15.59300000
   C     95.48000000    37.55000000    15.24300000
   O     96.63000000    37.33000000    14.80300000
   O     95.14000000    38.74000000    15.10300000
   H     94.77000000    36.75000000    12.90300000
   H     92.77000000    35.58000000    14.76300000
   H     94.90000000    35.52000000    15.66300000
   H     94.09000000    36.81000000    16.59300000
   N     92.27000000    38.58000000    13.78300000
   C     91.37000000    39.69000000    13.99300000
   C     91.85000000    40.90000000    14.79300000
   O     91.02000000    41.75000000    15.09300000
   H     92.67000000    38.40000000    12.86300000
   H     90.49000000    39.23000000    14.43300000
   H     91.06000000    40.04000000    13.00300000
   N     93.10000000    40.95000000    15.25300000
   C     93.45000000    41.92000000    16.27300000
   C     93.62000000    43.33000000    15.72300000
   O     93.81000000    44.30000000    16.45300000
   C     94.67000000    41.39000000    17.03300000
   C     95.89000000    41.47000000    16.13300000
   N     97.08000000    41.45000000    16.75300000
   O     95.97000000    41.45000000    14.91300000
   H     93.79000000    40.28000000    14.96300000
   H     92.65000000    42.03000000    17.00300000
   H     94.52000000    40.37000000    17.38300000
   H     94.87000000    42.04000000    17.88300000
   H     97.14000000    41.38000000    17.75300000
   H     97.94000000    41.50000000    16.22300000
   N     93.56000000    43.49000000    14.39300000
   C     93.69000000    44.73000000    13.66300000
   C     95.00000000    44.92000000    12.91300000
   O     95.19000000    45.98000000    12.31300000
   H     93.59000000    42.61000000    13.90300000
   H     93.47000000    45.64000000    14.22300000
   H     93.04000000    44.54000000    12.81300000
   N     95.92000000    43.96000000    12.91300000
   C     97.24000000    44.17000000    12.35300000
   C     97.66000000    42.94000000    11.56300000
   O     97.62000000    41.82000000    12.06300000
   C     98.28000000    44.51000000    13.42300000
   C     98.03000000    45.71000000    14.30300000
   C     98.69000000    46.93000000    14.17300000
   C     97.23000000    45.59000000    15.45300000
   C     98.55000000    47.96000000    15.11300000
   C     97.00000000    46.65000000    16.33300000
   C     97.59000000    47.91000000    16.14300000
   O     97.49000000    48.89000000    17.08300000
   H     95.71000000    43.17000000    13.50300000
   H     97.20000000    45.01000000    11.65300000
   H     99.23000000    44.63000000    12.90300000
   H     98.40000000    43.64000000    14.06300000
   H     99.43000000    47.01000000    13.38300000
   H     96.75000000    44.64000000    15.63300000
   H     99.15000000    48.87000000    15.10300000
   H     96.23000000    46.51000000    17.08300000
   H     98.33000000    49.36000000    17.11300000
   N     98.04000000    43.05000000    10.28300000
   C     98.54000000    41.99000000     9.43300000
   C    100.04000000    41.79000000     9.48300000
   O    100.78000000    42.77000000     9.54300000
   C     98.10000000    42.11000000     7.98300000
   C     96.65000000    42.52000000     7.71300000
   C     98.23000000    40.73000000     7.35300000
   C     96.55000000    43.05000000     6.29300000
   H     98.12000000    43.98000000     9.88300000
   H     98.03000000    41.09000000     9.78300000
   H     98.71000000    42.87000000     7.49300000
   H     96.32000000    43.27000000     8.44300000
   H     95.92000000    41.73000000     7.85300000
   H     97.56000000    40.00000000     7.79300000
   H     98.07000000    40.70000000     6.27300000
   H     99.25000000    40.35000000     7.42300000
   H     95.53000000    43.44000000     6.31300000
   H     97.29000000    43.76000000     5.92300000
   H     96.66000000    42.29000000     5.52300000
   N    100.50000000    40.55000000     9.69300000
   C    101.88000000    40.12000000     9.71300000
   C    102.36000000    39.25000000     8.55300000
   O    101.48000000    38.60000000     8.00300000
   C    102.20000000    39.40000000    11.01300000
   O    101.37000000    38.29000000    11.31300000
   H     99.79000000    39.84000000     9.76300000
   H    102.45000000    41.05000000     9.70300000
   H    102.14000000    40.06000000    11.88300000
   H    103.21000000    39.05000000    10.81300000
   H    100.58000000    38.64000000    11.73300000
   N    103.64000000    39.26000000     8.15300000
   C    104.09000000    38.51000000     6.99300000
   C    103.61000000    37.07000000     6.91300000
   O    103.24000000    36.68000000     5.81300000
   C    105.60000000    38.51000000     6.82300000
   H    104.20000000    39.94000000     8.63300000
   H    103.61000000    39.07000000     6.19300000
   H    106.04000000    39.46000000     7.11300000
   H    105.97000000    37.71000000     7.47300000
   H    105.90000000    38.33000000     5.79300000
   N    103.47000000    36.33000000     8.02300000
   C    102.93000000    34.99000000     8.04300000
   C    101.41000000    34.97000000     7.98300000
   O    100.78000000    34.03000000     7.50300000
   C    103.64000000    34.12000000     9.08300000
   H    103.81000000    36.70000000     8.89300000
   H    103.25000000    34.52000000     7.11300000
   H    104.70000000    34.05000000     8.87300000
   H    103.46000000    34.53000000    10.08300000
   H    103.16000000    33.14000000     9.10300000
   N    100.74000000    36.10000000     8.25300000
   C     99.33000000    36.21000000     7.94300000
   C     99.21000000    36.48000000     6.45300000
   O     98.48000000    35.72000000     5.83300000
   C     98.62000000    37.12000000     8.94300000
   C     98.56000000    36.60000000    10.37300000
   C     97.97000000    37.61000000    11.35300000
   O     96.93000000    37.46000000    12.03300000
   O     98.65000000    38.61000000    11.65300000
   H    101.23000000    36.93000000     8.55300000
   H     98.96000000    35.19000000     8.05300000
   H     97.62000000    37.40000000     8.63300000
   H     99.11000000    38.08000000     9.08300000
   H     99.56000000    36.34000000    10.73300000
   H     97.94000000    35.71000000    10.38300000
   N    100.08000000    37.34000000     5.91300000
   C    100.14000000    37.54000000     4.47300000
   H    101.11700000    37.94100000     4.20300000
   H     99.98600000    36.58700000     3.96700000
   H     99.36400000    38.24300000     4.17100000
   H    100.81000000    37.67000000     6.52300000
  Ca     97.12000000    39.54000000    13.47000000
   O     99.21000000    41.36000000    14.86000000
   H     99.85000000    40.78000000    15.27000000
   H     99.65000000    42.20000000    14.80000000
   O     99.57000000    38.39000000    14.53000000
   H     99.97000000    37.61000000    14.14000000
   H     99.96000000    38.44000000    15.40000000

Ca 1.00



