%chk=loop4.cluster45.chk
%nprocshared=20
%mem=10GB
%nosave
#b3lyp/svp scf=(tight,noincore,xqc) Test 
#IOP(5/87=12) Density=Current Pop=(MK,readradii) iop(6/33=2) iop(6/42=6)

loop4.cluster45 

   -3  1 
   C     49.47000000    34.17000000    47.79000000
   C     50.10000000    33.96000000    49.16000000
   O     50.76000000    34.85000000    49.69000000
   H     48.57700000    34.78700000    47.89200000
   H     50.18300000    34.66900000    47.13400000
   H     49.19700000    33.20500000    47.36300000
   N     49.75000000    32.86000000    49.83000000
   C     50.08000000    32.56000000    51.21000000
   C     49.54000000    33.46000000    52.32000000
   O     49.79000000    33.22000000    53.50000000
   C     51.56000000    32.20000000    51.31000000
   C     52.12000000    31.53000000    50.06000000
   O     52.94000000    32.19000000    49.39000000
   O     51.95000000    30.33000000    49.76000000
   H     49.21000000    32.22000000    49.28000000
   H     49.56000000    31.61000000    51.30000000
   H     51.76000000    31.51000000    52.14000000
   H     52.19000000    33.05000000    51.57000000
   N     48.68000000    34.41000000    51.98000000
   C     48.09000000    35.34000000    52.92000000
   C     46.97000000    34.68000000    53.71000000
   O     46.08000000    34.07000000    53.12000000
   C     47.54000000    36.58000000    52.22000000
   C     48.54000000    37.47000000    51.48000000
   C     46.81000000    37.51000000    53.19000000
   C     47.87000000    38.25000000    50.35000000
   H     48.33000000    34.52000000    51.03000000
   H     48.85000000    35.69000000    53.63000000
   H     46.82000000    36.26000000    51.47000000
   H     49.31000000    36.80000000    51.09000000
   H     48.96000000    38.25000000    52.11000000
   H     45.99000000    36.94000000    53.61000000
   H     47.48000000    38.01000000    53.89000000
   H     46.28000000    38.35000000    52.73000000
   H     47.47000000    37.49000000    49.67000000
   H     47.09000000    38.81000000    50.86000000
   H     48.55000000    38.94000000    49.85000000
   N     46.94000000    34.69000000    55.05000000
   C     47.57000000    35.58000000    56.01000000
   C     48.88000000    35.02000000    56.54000000
   O     49.88000000    35.73000000    56.47000000
   C     46.59000000    35.94000000    57.12000000
   C     45.16000000    36.30000000    56.77000000
   O     44.39000000    35.34000000    56.52000000
   O     44.78000000    37.49000000    56.76000000
   H     46.33000000    34.02000000    55.51000000
   H     47.79000000    36.50000000    55.48000000
   H     47.08000000    36.77000000    57.64000000
   H     46.51000000    35.06000000    57.75000000
   N     48.97000000    33.73000000    56.88000000
   C     50.19000000    33.03000000    57.22000000
   C     50.62000000    33.23000000    58.67000000
   O     49.75000000    33.44000000    59.51000000
   H     48.11000000    33.20000000    56.82000000
   H     50.97000000    33.36000000    56.54000000
   H     50.04000000    31.96000000    57.10000000
   N     51.92000000    33.22000000    58.96000000
   C     52.42000000    33.91000000    60.14000000
   C     52.23000000    35.42000000    60.08000000
   O     52.16000000    36.12000000    61.09000000
   C     53.84000000    33.60000000    60.59000000
   C     53.78000000    32.49000000    61.63000000
   O     53.34000000    32.72000000    62.78000000
   O     54.22000000    31.35000000    61.37000000
   H     52.60000000    32.98000000    58.25000000
   H     51.80000000    33.51000000    60.94000000
   H     54.35000000    34.44000000    61.07000000
   H     54.39000000    33.26000000    59.71000000
   N     52.16000000    36.04000000    58.90000000
   C     52.16000000    37.46000000    58.63000000
   C     53.51000000    38.13000000    58.84000000
   O     53.65000000    39.28000000    58.42000000
   H     52.23000000    35.50000000    58.04000000
   H     51.45000000    38.02000000    59.24000000
   H     51.83000000    37.63000000    57.61000000
   N     54.50000000    37.45000000    59.44000000
   C     55.88000000    37.85000000    59.64000000
   C     56.68000000    38.16000000    58.39000000
   O     57.76000000    38.74000000    58.38000000
   C     55.94000000    38.96000000    60.67000000
   C     55.83000000    38.55000000    62.14000000
   C     55.41000000    39.67000000    63.07000000
   N     54.14000000    40.06000000    63.20000000
   O     56.30000000    40.19000000    63.74000000
   H     54.20000000    36.59000000    59.88000000
   H     56.44000000    37.01000000    60.06000000
   H     55.16000000    39.68000000    60.42000000
   H     56.94000000    39.40000000    60.65000000
   H     56.82000000    38.17000000    62.40000000
   H     55.12000000    37.73000000    62.30000000
   H     53.35000000    39.53000000    62.88000000
   H     53.90000000    40.78000000    63.87000000
   N     56.12000000    37.71000000    57.26000000
   C     56.73000000    37.97000000    55.97000000
   C     58.00000000    37.18000000    55.69000000
   O     58.11000000    36.07000000    56.20000000
   C     55.71000000    37.90000000    54.84000000
   C     55.21000000    36.47000000    54.63000000
   C     54.49000000    38.82000000    54.89000000
   H     55.25000000    37.20000000    57.38000000
   H     57.06000000    39.01000000    56.03000000
   H     56.37000000    38.25000000    54.05000000
   H     54.49000000    36.34000000    53.82000000
   H     56.02000000    35.74000000    54.63000000
   H     54.73000000    36.21000000    55.57000000
   H     53.86000000    38.83000000    54.00000000
   H     53.76000000    38.64000000    55.68000000
   H     54.75000000    39.88000000    54.87000000
   N     58.93000000    37.79000000    54.96000000
   C     60.21000000    37.16000000    54.66000000
   C     60.67000000    37.64000000    53.29000000
   O     60.43000000    38.81000000    53.00000000
   C     61.19000000    37.48000000    55.78000000
   C     62.71000000    37.38000000    55.65000000
   N     63.29000000    36.22000000    55.32000000
   O     63.42000000    38.37000000    55.80000000
   H     58.72000000    38.73000000    54.68000000
   H     59.96000000    36.10000000    54.56000000
   H     61.01000000    36.70000000    56.53000000
   H     61.01000000    38.47000000    56.18000000
   H     62.90000000    35.30000000    55.19000000
   H     64.30000000    36.23000000    55.27000000
   N     61.32000000    36.80000000    52.49000000
   C     61.51000000    37.04000000    51.07000000
   C     61.50000000    35.75000000    50.26000000
   O     62.53000000    35.36000000    49.71000000
   C     62.76000000    37.88000000    50.85000000
   C     62.84000000    38.27000000    49.39000000
   C     61.80000000    38.99000000    48.80000000
   C     63.98000000    37.87000000    48.68000000
   C     61.90000000    39.17000000    47.41000000
   C     64.09000000    38.10000000    47.31000000
   C     63.06000000    38.84000000    46.69000000
   O     63.26000000    39.23000000    45.40000000
   H     61.55000000    35.86000000    52.78000000
   H     60.61000000    37.57000000    50.75000000
   H     63.62000000    37.33000000    51.24000000
   H     62.63000000    38.79000000    51.44000000
   H     60.97000000    39.33000000    49.39000000
   H     64.75000000    37.28000000    49.16000000
   H     61.14000000    39.75000000    46.91000000
   H     64.92000000    37.71000000    46.74000000
   H     64.09000000    38.80000000    45.16000000
   N     60.42000000    35.01000000    50.54000000
   C     60.46000000    33.58000000    50.30000000
   C     60.44000000    33.21000000    48.82000000
   O     61.28000000    32.46000000    48.33000000
   C     59.40000000    32.82000000    51.10000000
   C     59.43000000    31.29000000    51.09000000
   C     60.53000000    30.78000000    51.99000000
   O     61.67000000    30.90000000    51.49000000
   O     60.33000000    30.26000000    53.11000000
   H     59.66000000    35.48000000    51.00000000
   H     61.41000000    33.18000000    50.66000000
   H     58.40000000    33.03000000    50.72000000
   H     59.44000000    33.01000000    52.17000000
   H     59.57000000    30.96000000    50.06000000
   H     58.50000000    31.03000000    51.60000000
   N     59.56000000    33.67000000    47.93000000
   C     58.23000000    34.23000000    48.08000000
   C     58.00000000    35.20000000    46.93000000
   O     58.80000000    35.29000000    46.00000000
   C     57.12000000    33.18000000    48.15000000
   C     56.79000000    32.46000000    46.85000000
   C     55.57000000    31.58000000    47.05000000
   O     55.31000000    30.81000000    48.01000000
   O     54.69000000    31.61000000    46.16000000
   H     59.72000000    33.35000000    46.99000000
   H     58.23000000    34.74000000    49.04000000
   H     56.19000000    33.54000000    48.58000000
   H     57.46000000    32.41000000    48.85000000
   H     57.62000000    31.92000000    46.42000000
   H     56.57000000    33.17000000    46.05000000
   N     56.85000000    35.87000000    47.07000000
   C     56.33000000    36.94000000    46.25000000
   H     55.41700000    37.33100000    46.70000000
   H     57.07000000    37.73700000    46.18000000
   H     56.10900000    36.56000000    45.25300000
   H     56.31000000    35.69000000    47.91000000
  Ca     52.70000000    30.27000000    47.33000000
   O     53.23000000    28.22000000    45.80000000
   H     52.58000000    27.69000000    45.33000000
   H     53.96000000    28.30000000    45.18000000
   O     52.31000000    31.21000000    44.73000000
   H     53.13000000    31.51000000    44.33000000
   H     51.66000000    31.84000000    44.44000000
   O     53.90000000    28.11000000    48.84000000
   H     54.85000000    28.10000000    48.97000000
   H     53.62000000    27.21000000    49.02000000
   O     50.40000000    28.58000000    47.26000000
   H     50.29000000    28.08000000    48.06000000
   H     49.87000000    28.12000000    46.61000000

Ca 1.00



