%chk=loop2.cluster201.chk
%nprocshared=20
%mem=10GB
%nosave
#b3lyp/svp scf=(tight,noincore,xqc) Test 
#IOP(5/87=12) Density=Current Pop=(MK,readradii) iop(6/33=2) iop(6/42=6)

loop2.cluster201 

   -2  1 
   C     86.34000000    62.38000000    18.82000000
   C     87.66000000    62.63000000    18.10000000
   O     87.66000000    63.37000000    17.12000000
   H     85.55600000    62.19300000    18.08600000
   H     86.44000000    61.51300000    19.47200000
   H     86.07900000    63.25500000    19.41500000
   N     88.79000000    62.18000000    18.64000000
   C     90.18000000    62.38000000    18.27000000
   C     90.64000000    63.71000000    18.84000000
   O     91.53000000    63.72000000    19.69000000
   C     91.04000000    61.24000000    18.84000000
   C     92.41000000    61.10000000    18.19000000
   O     92.82000000    61.87000000    17.29000000
   O     93.12000000    60.19000000    18.65000000
   H     88.69000000    61.62000000    19.47000000
   H     90.29000000    62.44000000    17.19000000
   H     90.42000000    60.37000000    18.62000000
   H     91.16000000    61.27000000    19.92000000
   N     90.21000000    64.82000000    18.23000000
   C     90.63000000    66.16000000    18.59000000
   C     89.56000000    66.98000000    19.29000000
   O     88.38000000    66.85000000    18.98000000
   C     90.99000000    66.89000000    17.30000000
   H     89.58000000    64.73000000    17.45000000
   H     91.54000000    66.20000000    19.19000000
   H     91.87000000    66.43000000    16.85000000
   H     90.22000000    66.84000000    16.54000000
   H     91.32000000    67.92000000    17.46000000
   N     89.85000000    67.89000000    20.22000000
   C     91.14000000    68.50000000    20.48000000
   C     91.76000000    67.92000000    21.74000000
   O     91.14000000    67.33000000    22.63000000
   C     91.15000000    70.01000000    20.71000000
   C     90.38000000    70.81000000    19.67000000
   O     90.78000000    70.81000000    18.48000000
   O     89.41000000    71.53000000    20.01000000
   H     88.99000000    68.25000000    20.60000000
   H     91.91000000    68.26000000    19.75000000
   H     92.17000000    70.39000000    20.76000000
   H     90.80000000    70.22000000    21.72000000
   N     93.05000000    68.16000000    21.93000000
   C     93.82000000    67.64000000    23.05000000
   C     94.00000000    66.13000000    22.96000000
   O     94.24000000    65.68000000    21.84000000
   H     93.56000000    68.75000000    21.29000000
   H     93.34000000    67.97000000    23.96000000
   H     94.82000000    68.06000000    23.14000000
   N     94.03000000    65.31000000    24.01000000
   C     94.05000000    65.55000000    25.44000000
   C     92.77000000    66.12000000    26.04000000
   O     92.67000000    66.27000000    27.25000000
   C     94.56000000    64.30000000    26.16000000
   C     95.98000000    63.88000000    25.83000000
   N     96.96000000    64.03000000    26.72000000
   O     96.24000000    63.27000000    24.79000000
   H     94.11000000    64.34000000    23.75000000
   H     94.79000000    66.32000000    25.60000000
   H     93.95000000    63.40000000    26.00000000
   H     94.52000000    64.47000000    27.23000000
   H     96.73000000    64.54000000    27.56000000
   H     97.78000000    63.48000000    26.53000000
   N     91.73000000    66.38000000    25.24000000
   C     90.47000000    66.90000000    25.74000000
   C     90.47000000    68.40000000    25.99000000
   O     89.96000000    68.95000000    26.97000000
   H     91.92000000    66.28000000    24.25000000
   H     90.21000000    66.31000000    26.62000000
   H     89.71000000    66.72000000    24.99000000
   N     91.11000000    69.15000000    25.10000000
   C     91.22000000    70.60000000    25.02000000
   C     90.07000000    71.19000000    24.22000000
   O     90.30000000    72.04000000    23.36000000
   C     92.57000000    70.98000000    24.41000000
   C     93.05000000    72.33000000    24.93000000
   O     93.65000000    70.14000000    24.76000000
   H     91.61000000    68.64000000    24.38000000
   H     91.10000000    70.95000000    26.04000000
   H     92.46000000    70.82000000    23.34000000
   H     94.45000000    70.45000000    24.33000000
   H     93.42000000    72.18000000    25.95000000
   H     93.90000000    72.63000000    24.32000000
   H     92.28000000    73.10000000    24.99000000
   N     88.80000000    70.80000000    24.35000000
   C     87.66000000    71.31000000    23.62000000
   C     87.20000000    72.67000000    24.15000000
   O     87.61000000    73.03000000    25.25000000
   C     86.56000000    70.28000000    23.42000000
   C     87.00000000    69.12000000    22.53000000
   C     85.92000000    69.82000000    24.73000000
   C     87.83000000    67.91000000    22.96000000
   H     88.60000000    70.21000000    25.14000000
   H     87.95000000    71.56000000    22.60000000
   H     85.81000000    70.78000000    22.81000000
   H     87.45000000    69.59000000    21.66000000
   H     86.06000000    68.68000000    22.17000000
   H     84.93000000    69.44000000    24.47000000
   H     86.49000000    68.96000000    25.09000000
   H     85.90000000    70.59000000    25.50000000
   H     88.85000000    68.21000000    23.19000000
   H     87.33000000    67.48000000    23.82000000
   H     87.92000000    67.25000000    22.09000000
   N     86.29000000    73.35000000    23.46000000
   C     85.84000000    74.67000000    23.84000000
   C     84.36000000    74.94000000    23.55000000
   O     83.80000000    74.64000000    22.50000000
   C     86.62000000    75.77000000    23.11000000
   C     87.31000000    75.32000000    21.83000000
   O     88.44000000    74.79000000    21.84000000
   O     86.65000000    75.46000000    20.78000000
   H     86.13000000    73.05000000    22.50000000
   H     85.99000000    74.78000000    24.91000000
   H     87.34000000    76.07000000    23.86000000
   H     85.96000000    76.60000000    22.85000000
   N     83.72000000    75.61000000    24.50000000
   C     82.29000000    75.88000000    24.49000000
   C     81.38000000    74.76000000    23.99000000
   O     81.37000000    73.67000000    24.56000000
   C     81.95000000    76.36000000    25.90000000
   C     80.54000000    76.90000000    25.95000000
   C     79.48000000    76.00000000    26.14000000
   C     80.31000000    78.28000000    26.04000000
   C     78.14000000    76.38000000    26.05000000
   C     78.98000000    78.70000000    25.99000000
   C     77.94000000    77.76000000    25.95000000
   H     84.18000000    75.96000000    25.33000000
   H     82.11000000    76.73000000    23.84000000
   H     82.74000000    77.07000000    26.13000000
   H     82.06000000    75.52000000    26.58000000
   H     79.78000000    74.96000000    26.22000000
   H     81.10000000    79.01000000    26.13000000
   H     77.32000000    75.68000000    26.09000000
   H     78.79000000    79.77000000    25.99000000
   H     77.00000000    78.30000000    25.99000000
   N     80.63000000    74.84000000    22.89000000
   C     79.56000000    73.89000000    22.67000000
   C     80.02000000    72.56000000    22.08000000
   O     79.27000000    71.60000000    22.20000000
   C     78.57000000    74.57000000    21.72000000
   C     79.27000000    75.82000000    21.20000000
   C     80.42000000    76.09000000    22.18000000
   H     79.00000000    73.60000000    23.55000000
   H     78.29000000    73.98000000    20.85000000
   H     77.68000000    74.73000000    22.32000000
   H     79.67000000    75.56000000    20.22000000
   H     78.54000000    76.62000000    21.23000000
   H     81.26000000    76.33000000    21.53000000
   H     80.12000000    76.92000000    22.82000000
   N     81.27000000    72.44000000    21.64000000
   C     81.99000000    71.21000000    21.38000000
   C     81.95000000    70.12000000    22.44000000
   O     81.88000000    68.96000000    22.05000000
   C     83.46000000    71.62000000    21.29000000
   C     83.84000000    72.51000000    20.11000000
   C     85.32000000    72.74000000    19.86000000
   O     86.19000000    72.41000000    20.70000000
   O     85.69000000    73.25000000    18.79000000
   H     81.81000000    73.30000000    21.66000000
   H     81.79000000    70.71000000    20.42000000
   H     84.02000000    70.70000000    21.17000000
   H     83.80000000    72.14000000    22.19000000
   H     83.33000000    73.47000000    20.22000000
   H     83.44000000    72.05000000    19.20000000
   N     81.88000000    70.48000000    23.73000000
   C     81.68000000    69.59000000    24.85000000
   H     80.64400000    69.25100000    24.86300000
   H     82.34200000    68.73000000    24.75400000
   H     81.90100000    70.11700000    25.77800000
   H     82.04000000    71.46000000    23.90000000
  Ca     88.18000000    73.66000000    19.50000000
   O     91.03000000    73.98000000    21.08000000
   H     91.17000000    73.21000000    21.62000000
   H     90.44000000    74.53000000    21.59000000
   O     90.68000000    73.41000000    18.02000000
   H     90.72000000    72.46000000    18.15000000
   H     90.88000000    73.53000000    17.10000000
   O     87.95000000    74.62000000    17.04000000
   H     88.16000000    74.10000000    16.26000000
   H     87.22000000    75.18000000    16.77000000
   O     88.17000000    71.64000000    17.53000000
   H     89.02000000    71.25000000    17.74000000
   H     88.01000000    71.40000000    16.62000000
   O     89.65000000    75.96000000    19.26000000
   H     90.59000000    75.78000000    19.31000000
   H     89.59000000    76.92000000    19.24000000

Ca 1.00



