%chk=loop4.cluster52.chk
%nprocshared=20
%mem=10GB
%nosave
#b3lyp/svp scf=(tight,noincore,xqc) Test 
#IOP(5/87=12) Density=Current Pop=(MK,readradii) iop(6/33=2) iop(6/42=6)

loop4.cluster52 

   -3  1 
   C     96.15000000    81.99000000    43.46000000
   C     97.27000000    81.20000000    44.12000000
   O     97.34000000    80.01000000    43.83000000
   H     95.30500000    82.06300000    44.14500000
   H     96.50600000    82.99100000    43.21500000
   H     95.83500000    81.48200000    42.54800000
   N     98.14000000    81.80000000    44.93000000
   C     99.42000000    81.31000000    45.40000000
   C    100.38000000    80.62000000    44.44000000
   O    101.45000000    80.21000000    44.90000000
   C     99.24000000    80.59000000    46.74000000
   C     98.42000000    79.31000000    46.72000000
   O     97.68000000    79.02000000    47.69000000
   O     98.67000000    78.52000000    45.79000000
   H     98.02000000    82.80000000    45.06000000
   H    100.00000000    82.19000000    45.66000000
   H     98.78000000    81.25000000    47.47000000
   H    100.24000000    80.35000000    47.10000000
   N    100.18000000    80.52000000    43.13000000
   C    100.99000000    79.66000000    42.29000000
   C    100.79000000    78.19000000    42.62000000
   O     99.70000000    77.74000000    42.97000000
   C    100.75000000    79.90000000    40.81000000
   C    101.36000000    81.26000000    40.48000000
   C     99.28000000    79.89000000    40.37000000
   C    101.46000000    81.52000000    38.98000000
   H     99.38000000    81.00000000    42.72000000
   H    102.04000000    79.92000000    42.47000000
   H    101.24000000    79.06000000    40.32000000
   H    102.34000000    81.38000000    40.94000000
   H    100.70000000    82.02000000    40.89000000
   H     98.81000000    80.83000000    40.62000000
   H     99.21000000    79.73000000    39.29000000
   H     98.70000000    79.08000000    40.81000000
   H    100.44000000    81.48000000    38.59000000
   H    101.83000000    82.53000000    38.79000000
   H    102.15000000    80.81000000    38.52000000
   N    101.83000000    77.37000000    42.50000000
   C    101.79000000    75.92000000    42.47000000
   C    101.68000000    75.39000000    43.90000000
   O    102.19000000    76.08000000    44.78000000
   C    103.04000000    75.37000000    41.80000000
   C    104.39000000    76.06000000    41.90000000
   O    104.47000000    77.17000000    41.32000000
   O    105.31000000    75.37000000    42.38000000
   H    102.69000000    77.78000000    42.16000000
   H    100.93000000    75.55000000    41.91000000
   H    102.71000000    75.40000000    40.76000000
   H    103.16000000    74.37000000    42.22000000
   N    101.03000000    74.27000000    44.20000000
   C    100.35000000    73.41000000    43.25000000
   C     99.04000000    73.96000000    42.67000000
   O     98.54000000    74.95000000    43.19000000
   H    100.97000000    74.02000000    45.18000000
   H    100.27000000    72.40000000    43.64000000
   H    101.01000000    73.23000000    42.40000000
   N     98.30000000    73.36000000    41.74000000
   C     98.64000000    72.17000000    40.98000000
   C     98.20000000    72.51000000    39.56000000
   O     97.19000000    72.06000000    39.04000000
   C     97.89000000    70.94000000    41.48000000
   C     98.42000000    69.63000000    40.91000000
   O     97.80000000    68.58000000    41.20000000
   O     99.47000000    69.64000000    40.24000000
   H     97.37000000    73.68000000    41.52000000
   H     99.70000000    71.92000000    41.00000000
   H     96.83000000    70.97000000    41.24000000
   H     98.03000000    70.86000000    42.56000000
   N     99.08000000    73.19000000    38.82000000
   C    100.49000000    73.40000000    39.08000000
   C    101.35000000    74.16000000    38.08000000
   O    102.54000000    74.31000000    38.35000000
   H     98.65000000    73.37000000    37.93000000
   H    100.92000000    72.40000000    39.22000000
   H    100.54000000    73.98000000    40.00000000
   N    100.77000000    74.51000000    36.93000000
   C    101.41000000    75.10000000    35.77000000
   C    100.54000000    76.23000000    35.23000000
   O     99.72000000    76.09000000    34.33000000
   C    101.71000000    74.00000000    34.75000000
   C    102.36000000    74.50000000    33.46000000
   C    102.91000000    73.38000000    32.60000000
   N    103.83000000    73.71000000    31.69000000
   O    102.58000000    72.20000000    32.57000000
   H     99.78000000    74.35000000    36.84000000
   H    102.32000000    75.55000000    36.16000000
   H    100.79000000    73.44000000    34.59000000
   H    102.45000000    73.34000000    35.19000000
   H    103.25000000    75.00000000    33.83000000
   H    101.67000000    75.15000000    32.91000000
   H    104.16000000    74.66000000    31.79000000
   H    104.09000000    73.04000000    30.98000000
   N    100.88000000    77.46000000    35.64000000
   C    100.24000000    78.66000000    35.14000000
   C     98.86000000    78.94000000    35.72000000
   O     98.64000000    78.72000000    36.91000000
   C    101.24000000    79.81000000    35.24000000
   C    100.65000000    81.19000000    34.94000000
   C    102.39000000    79.58000000    34.27000000
   H    101.61000000    77.56000000    36.33000000
   H    100.09000000    78.61000000    34.06000000
   H    101.58000000    79.76000000    36.27000000
   H    101.43000000    81.95000000    34.85000000
   H     99.95000000    81.25000000    34.11000000
   H    100.03000000    81.55000000    35.76000000
   H    102.07000000    79.57000000    33.23000000
   H    103.02000000    80.46000000    34.43000000
   H    102.95000000    78.65000000    34.42000000
   N     97.90000000    79.23000000    34.84000000
   C     96.53000000    79.45000000    35.25000000
   C     95.68000000    78.19000000    35.21000000
   O     94.55000000    78.26000000    35.70000000
   C     96.11000000    80.48000000    34.20000000
   C     94.97000000    81.43000000    34.55000000
   N     94.36000000    81.97000000    33.49000000
   O     94.70000000    81.92000000    35.64000000
   H     98.06000000    79.17000000    33.85000000
   H     96.47000000    79.82000000    36.28000000
   H     95.75000000    79.89000000    33.36000000
   H     96.95000000    81.08000000    33.88000000
   H     94.56000000    81.72000000    32.53000000
   H     93.70000000    82.73000000    33.64000000
   N     96.14000000    77.15000000    34.51000000
   C     95.41000000    75.92000000    34.29000000
   C     95.15000000    75.33000000    35.67000000
   O     96.04000000    75.22000000    36.51000000
   C     96.18000000    75.07000000    33.28000000
   C     95.94000000    75.59000000    31.88000000
   C     96.98000000    76.18000000    31.16000000
   C     94.66000000    75.59000000    31.31000000
   C     96.71000000    76.74000000    29.90000000
   C     94.37000000    76.11000000    30.05000000
   C     95.40000000    76.82000000    29.40000000
   O     95.17000000    77.53000000    28.26000000
   H     97.03000000    77.28000000    34.05000000
   H     94.44000000    76.13000000    33.86000000
   H     95.90000000    74.03000000    33.42000000
   H     97.26000000    75.04000000    33.46000000
   H     97.99000000    76.25000000    31.53000000
   H     93.83000000    75.14000000    31.83000000
   H     97.50000000    77.10000000    29.27000000
   H     93.37000000    76.17000000    29.63000000
   H     96.00000000    77.62000000    27.78000000
   N     93.88000000    74.96000000    35.88000000
   C     93.22000000    74.55000000    37.11000000
   C     93.16000000    75.60000000    38.20000000
   O     92.95000000    75.29000000    39.37000000
   C     93.84000000    73.28000000    37.69000000
   C     93.76000000    72.03000000    36.82000000
   C     92.28000000    71.71000000    36.61000000
   O     91.73000000    71.03000000    37.50000000
   O     91.65000000    72.02000000    35.58000000
   H     93.25000000    75.09000000    35.11000000
   H     92.20000000    74.25000000    36.87000000
   H     93.34000000    73.11000000    38.64000000
   H     94.88000000    73.45000000    37.97000000
   H     94.17000000    71.18000000    37.35000000
   H     94.37000000    72.08000000    35.92000000
   N     93.48000000    76.86000000    37.86000000
   C     93.29000000    78.01000000    38.72000000
   C     92.12000000    78.85000000    38.24000000
   O     91.34000000    79.36000000    39.05000000
   C     94.54000000    78.89000000    38.79000000
   C     95.79000000    78.18000000    39.32000000
   C     95.76000000    77.83000000    40.80000000
   O     96.66000000    77.17000000    41.35000000
   O     94.70000000    78.04000000    41.44000000
   H     94.02000000    77.04000000    37.03000000
   H     93.07000000    77.69000000    39.74000000
   H     94.34000000    79.71000000    39.48000000
   H     94.74000000    79.39000000    37.85000000
   H     96.60000000    78.90000000    39.24000000
   H     96.04000000    77.32000000    38.69000000
   N     91.89000000    79.02000000    36.94000000
   C     90.64000000    79.60000000    36.51000000
   H     89.90100000    79.49900000    37.30500000
   H     90.78800000    80.65600000    36.28400000
   H     90.28700000    79.08300000    35.61800000
   H     92.59000000    78.65000000    36.30000000
  Ca     97.25000000    77.28000000    43.93000000
   O     97.33000000    75.80000000    46.15000000
   H     96.95000000    76.09000000    46.98000000
   H     97.24000000    74.85000000    46.18000000
   O     95.39000000    78.59000000    45.42000000
   H     94.49000000    78.47000000    45.75000000
   H     95.67000000    79.43000000    45.79000000
   O     95.35000000    75.44000000    43.58000000
   H     94.56000000    75.69000000    43.10000000
   H     95.17000000    74.55000000    43.90000000

Ca 1.00



