%chk=loop2.cluster168.chk
%nprocshared=20
%mem=10GB
%nosave
#b3lyp/svp scf=(tight,noincore,xqc) Test 
#IOP(5/87=12) Density=Current Pop=(MK,readradii) iop(6/33=2) iop(6/42=6)

loop2.cluster168 

   -2  1 
   C     44.51000000   -11.80000000    31.70000000
   C     43.35000000   -12.73000000    32.00000000
   O     42.89000000   -12.87000000    33.13000000
   H     45.37200000   -12.38600000    31.38200000
   H     44.22700000   -11.11000000    30.90500000
   H     44.76600000   -11.23600000    32.59700000
   N     42.82000000   -13.35000000    30.94000000
   C     41.57000000   -14.07000000    30.90000000
   C     41.38000000   -15.15000000    31.95000000
   O     40.33000000   -15.23000000    32.59000000
   C     41.39000000   -14.66000000    29.50000000
   C     40.02000000   -15.26000000    29.26000000
   O     39.85000000   -16.49000000    29.13000000
   O     38.95000000   -14.61000000    29.21000000
   H     43.25000000   -13.27000000    30.03000000
   H     40.80000000   -13.31000000    31.08000000
   H     42.19000000   -15.40000000    29.48000000
   H     41.65000000   -13.91000000    28.75000000
   N     42.41000000   -15.98000000    32.11000000
   C     42.33000000   -17.20000000    32.88000000
   C     42.17000000   -16.96000000    34.38000000
   O     41.93000000   -17.88000000    35.15000000
   C     41.37000000   -18.17000000    32.19000000
   H     43.12000000   -16.00000000    31.38000000
   H     43.29000000   -17.70000000    32.81000000
   H     41.53000000   -19.20000000    32.49000000
   H     40.39000000   -17.89000000    32.58000000
   H     41.44000000   -18.02000000    31.11000000
   N     42.36000000   -15.75000000    34.92000000
   C     41.99000000   -15.39000000    36.28000000
   C     40.51000000   -15.51000000    36.59000000
   O     40.13000000   -15.73000000    37.74000000
   C     42.84000000   -15.98000000    37.40000000
   C     44.34000000   -15.88000000    37.14000000
   O     44.99000000   -14.85000000    37.44000000
   O     45.00000000   -16.75000000    36.54000000
   H     42.62000000   -14.98000000    34.32000000
   H     42.13000000   -14.31000000    36.29000000
   H     42.56000000   -17.02000000    37.56000000
   H     42.62000000   -15.42000000    38.31000000
   N     39.70000000   -15.33000000    35.54000000
   C     38.28000000   -15.51000000    35.78000000
   C     37.73000000   -14.39000000    36.65000000
   O     38.18000000   -13.25000000    36.56000000
   H     40.04000000   -15.18000000    34.60000000
   H     38.04000000   -16.44000000    36.28000000
   H     37.81000000   -15.36000000    34.81000000
   N     36.88000000   -14.81000000    37.59000000
   C     36.44000000   -14.13000000    38.80000000
   C     36.13000000   -12.67000000    38.50000000
   O     36.59000000   -11.78000000    39.21000000
   C     37.46000000   -14.37000000    39.91000000
   C     37.38000000   -15.83000000    40.36000000
   N     38.38000000   -16.62000000    39.96000000
   O     36.46000000   -16.32000000    41.01000000
   H     36.36000000   -15.66000000    37.43000000
   H     35.51000000   -14.61000000    39.09000000
   H     37.32000000   -13.81000000    40.83000000
   H     38.47000000   -14.07000000    39.65000000
   H     39.04000000   -16.32000000    39.27000000
   H     38.35000000   -17.62000000    40.15000000
   N     35.46000000   -12.40000000    37.38000000
   C     35.01000000   -11.10000000    36.92000000
   C     35.95000000   -10.24000000    36.10000000
   O     35.65000000    -9.08000000    35.82000000
   H     35.35000000   -13.16000000    36.72000000
   H     34.76000000   -10.52000000    37.81000000
   H     34.14000000   -11.23000000    36.27000000
   N     37.13000000   -10.76000000    35.73000000
   C     38.13000000   -10.06000000    34.96000000
   C     38.94000000    -9.10000000    35.82000000
   O     39.29000000    -9.32000000    36.98000000
   C     39.12000000   -11.02000000    34.31000000
   C     38.56000000   -12.18000000    33.49000000
   O     39.95000000   -10.37000000    33.37000000
   H     37.21000000   -11.74000000    35.96000000
   H     37.71000000    -9.50000000    34.12000000
   H     39.72000000   -11.42000000    35.12000000
   H     40.57000000    -9.85000000    33.89000000
   H     38.70000000   -13.14000000    33.98000000
   H     37.49000000   -12.02000000    33.40000000
   H     39.02000000   -12.20000000    32.50000000
   N     39.33000000    -7.98000000    35.20000000
   C     40.55000000    -7.23000000    35.46000000
   C     41.78000000    -8.12000000    35.54000000
   O     41.80000000    -9.11000000    34.80000000
   C     40.73000000    -6.22000000    34.34000000
   C     41.59000000    -5.05000000    34.80000000
   C     41.38000000    -6.77000000    33.07000000
   C     41.78000000    -3.88000000    33.83000000
   H     39.07000000    -7.89000000    34.23000000
   H     40.32000000    -6.71000000    36.39000000
   H     39.77000000    -5.79000000    34.03000000
   H     42.60000000    -5.38000000    35.05000000
   H     41.16000000    -4.58000000    35.68000000
   H     40.94000000    -7.73000000    32.82000000
   H     41.22000000    -6.03000000    32.29000000
   H     42.44000000    -6.94000000    33.27000000
   H     42.23000000    -4.22000000    32.91000000
   H     40.84000000    -3.36000000    33.61000000
   H     42.45000000    -3.14000000    34.27000000
   N     42.76000000    -7.80000000    36.39000000
   C     43.82000000    -8.73000000    36.73000000
   C     43.88000000    -9.12000000    38.19000000
   O     44.31000000   -10.23000000    38.51000000
   C     45.18000000    -8.19000000    36.28000000
   C     46.40000000    -9.09000000    36.39000000
   O     46.27000000   -10.33000000    36.46000000
   O     47.51000000    -8.52000000    36.53000000
   H     42.64000000    -6.94000000    36.91000000
   H     43.69000000    -9.66000000    36.18000000
   H     45.37000000    -7.18000000    36.65000000
   H     45.09000000    -8.00000000    35.21000000
   N     43.31000000    -8.35000000    39.12000000
   C     43.14000000    -8.77000000    40.50000000
   C     43.17000000    -7.62000000    41.51000000
   O     43.84000000    -7.77000000    42.52000000
   C     41.87000000    -9.61000000    40.59000000
   C     41.41000000    -9.80000000    42.01000000
   C     42.12000000   -10.72000000    42.79000000
   C     40.33000000    -9.08000000    42.54000000
   C     41.75000000   -10.97000000    44.12000000
   C     40.01000000    -9.32000000    43.88000000
   C     40.73000000   -10.20000000    44.69000000
   H     42.89000000    -7.50000000    38.78000000
   H     44.00000000    -9.40000000    40.70000000
   H     42.05000000   -10.66000000    40.32000000
   H     41.03000000    -9.22000000    40.02000000
   H     42.94000000   -11.27000000    42.36000000
   H     39.73000000    -8.47000000    41.87000000
   H     42.23000000   -11.74000000    44.70000000
   H     39.27000000    -8.67000000    44.32000000
   H     40.51000000   -10.30000000    45.74000000
   N     42.51000000    -6.49000000    41.25000000
   C     41.65000000    -6.16000000    40.14000000
   C     42.49000000    -5.43000000    39.10000000
   O     42.17000000    -5.48000000    37.91000000
   C     40.51000000    -5.30000000    40.66000000
   C     40.60000000    -5.39000000    42.18000000
   C     42.11000000    -5.58000000    42.31000000
   H     41.14000000    -6.97000000    39.62000000
   H     40.69000000    -4.25000000    40.42000000
   H     39.57000000    -5.72000000    40.30000000
   H     40.47000000    -4.47000000    42.74000000
   H     40.01000000    -6.30000000    42.37000000
   H     42.56000000    -4.60000000    42.20000000
   H     42.34000000    -5.81000000    43.35000000
   N     43.63000000    -4.83000000    39.44000000
   C     44.34000000    -3.75000000    38.78000000
   C     45.53000000    -4.08000000    37.89000000
   O     46.47000000    -4.78000000    38.26000000
   C     44.48000000    -2.52000000    39.68000000
   C     43.24000000    -1.83000000    40.25000000
   C     43.47000000    -0.54000000    41.02000000
   O     43.47000000    -0.38000000    42.26000000
   O     43.62000000     0.50000000    40.34000000
   H     43.96000000    -4.98000000    40.39000000
   H     43.64000000    -3.41000000    38.01000000
   H     44.81000000    -1.81000000    38.93000000
   H     45.25000000    -2.52000000    40.44000000
   H     42.68000000    -2.53000000    40.87000000
   H     42.52000000    -1.57000000    39.48000000
   N     45.47000000    -3.59000000    36.65000000
   C     46.26000000    -3.92000000    35.47000000
   H     47.24600000    -4.26800000    35.77900000
   H     45.75900000    -4.70600000    34.90500000
   H     46.36800000    -3.03400000    34.84500000
   H     44.71000000    -2.97000000    36.42000000
  Ca     45.10000000   -12.42200000    37.40000000
   O     45.85000000   -12.74200000    39.88000000
   H     46.66000000   -12.34200000    40.21000000
   H     45.49000000   -13.21200000    40.64000000
   O     45.78000000   -13.28200000    34.93000000
   H     46.12000000   -13.05200000    34.07000000
   H     46.08000000   -14.18200000    35.09000000
   O     43.00000000   -12.06200000    35.76000000
   H     42.92000000   -12.47200000    34.90000000
   H     42.27000000   -11.44200000    35.80000000
   O     42.86000000   -12.92200000    38.75000000
   H     41.95000000   -12.72200000    38.53000000
   H     42.83000000   -13.19200000    39.67000000
   O     47.76000000   -13.10200000    37.71000000
   H     48.64000000   -12.73200000    37.71000000
   H     47.87000000   -14.00200000    37.41000000

Ca 1.00



