%chk=loop4.cluster25.chk
%nprocshared=20
%mem=10GB
%nosave
#b3lyp/svp scf=(tight,noincore,xqc) Test 
#IOP(5/87=12) Density=Current Pop=(MK,readradii) iop(6/33=2) iop(6/42=6)

loop4.cluster25 

   -3  1 
   C     57.29000000    56.92000000    44.64000000
   C     56.55000000    57.71000000    45.71000000
   O     55.67000000    58.49000000    45.36000000
   H     58.28200000    56.65500000    45.00600000
   H     56.73400000    56.01100000    44.40900000
   H     57.38500000    57.52700000    43.74000000
   N     56.93000000    57.51000000    46.98000000
   C     56.32000000    58.20000000    48.10000000
   C     56.84000000    59.63000000    48.21000000
   O     58.05000000    59.87000000    48.12000000
   C     56.69000000    57.44000000    49.37000000
   C     55.93000000    57.87000000    50.62000000
   O     55.11000000    58.82000000    50.66000000
   O     56.08000000    57.19000000    51.65000000
   H     57.69000000    56.88000000    47.19000000
   H     55.24000000    58.18000000    47.94000000
   H     57.74000000    57.64000000    49.57000000
   H     56.55000000    56.36000000    49.25000000
   N     55.94000000    60.60000000    48.38000000
   C     56.10000000    62.04000000    48.42000000
   C     55.97000000    62.66000000    49.81000000
   O     56.25000000    63.84000000    50.01000000
   C     55.15000000    62.52000000    47.32000000
   C     55.64000000    62.20000000    45.91000000
   C     54.97000000    64.03000000    47.47000000
   C     54.69000000    62.39000000    44.74000000
   H     54.99000000    60.26000000    48.41000000
   H     57.11000000    62.25000000    48.07000000
   H     54.15000000    62.11000000    47.38000000
   H     55.81000000    61.12000000    45.87000000
   H     56.57000000    62.76000000    45.77000000
   H     56.00000000    64.39000000    47.37000000
   H     54.41000000    64.48000000    46.65000000
   H     54.48000000    64.32000000    48.40000000
   H     54.57000000    63.47000000    44.60000000
   H     55.07000000    61.95000000    43.82000000
   H     53.70000000    61.97000000    44.93000000
   N     55.48000000    61.96000000    50.83000000
   C     55.20000000    62.44000000    52.17000000
   C     55.81000000    61.64000000    53.31000000
   O     55.63000000    61.89000000    54.50000000
   C     53.69000000    62.61000000    52.32000000
   C     52.90000000    61.35000000    52.01000000
   O     52.52000000    60.54000000    52.88000000
   O     52.55000000    61.14000000    50.82000000
   H     55.22000000    61.00000000    50.61000000
   H     55.63000000    63.43000000    52.32000000
   H     53.41000000    63.35000000    51.57000000
   H     53.43000000    63.12000000    53.25000000
   N     56.49000000    60.55000000    52.95000000
   C     57.33000000    59.80000000    53.87000000
   C     56.63000000    58.88000000    54.85000000
   O     57.06000000    58.90000000    56.00000000
   H     56.59000000    60.25000000    51.99000000
   H     58.03000000    60.45000000    54.41000000
   H     57.94000000    59.05000000    53.37000000
   N     55.59000000    58.11000000    54.50000000
   C     54.88000000    57.15000000    55.31000000
   C     55.13000000    55.70000000    54.93000000
   O     54.59000000    54.79000000    55.56000000
   C     53.39000000    57.50000000    55.41000000
   C     52.70000000    57.47000000    54.06000000
   O     51.45000000    57.57000000    54.09000000
   O     53.25000000    57.24000000    52.96000000
   H     55.30000000    58.15000000    53.54000000
   H     55.21000000    57.23000000    56.35000000
   H     53.40000000    58.53000000    55.77000000
   H     52.86000000    56.83000000    56.08000000
   N     55.92000000    55.50000000    53.87000000
   C     56.19000000    54.19000000    53.30000000
   C     55.05000000    53.58000000    52.50000000
   O     54.98000000    52.43000000    52.07000000
   H     56.08000000    56.30000000    53.28000000
   H     56.45000000    53.55000000    54.15000000
   H     57.07000000    54.30000000    52.67000000
   N     54.04000000    54.41000000    52.23000000
   C     52.85000000    54.03000000    51.50000000
   C     52.69000000    54.83000000    50.21000000
   O     52.84000000    56.05000000    50.24000000
   C     51.58000000    54.24000000    52.32000000
   C     51.49000000    53.67000000    53.73000000
   C     50.13000000    53.91000000    54.38000000
   N     49.81000000    55.19000000    54.54000000
   O     49.37000000    52.99000000    54.68000000
   H     53.99000000    55.32000000    52.66000000
   H     52.88000000    52.95000000    51.31000000
   H     50.71000000    53.94000000    51.75000000
   H     51.54000000    55.33000000    52.40000000
   H     52.20000000    54.26000000    54.31000000
   H     51.91000000    52.66000000    53.77000000
   H     50.39000000    55.96000000    54.25000000
   H     48.97000000    55.40000000    55.07000000
   N     52.33000000    54.12000000    49.15000000
   C     52.15000000    54.67000000    47.82000000
   C     50.67000000    54.64000000    47.47000000
   O     50.18000000    53.55000000    47.17000000
   C     53.05000000    53.94000000    46.83000000
   C     52.77000000    54.40000000    45.40000000
   C     54.54000000    54.12000000    47.08000000
   H     52.61000000    53.15000000    49.24000000
   H     52.49000000    55.70000000    47.86000000
   H     52.81000000    52.88000000    46.90000000
   H     53.16000000    55.41000000    45.27000000
   H     53.31000000    53.77000000    44.69000000
   H     51.74000000    54.46000000    45.06000000
   H     54.75000000    53.67000000    48.05000000
   H     55.07000000    53.49000000    46.37000000
   H     54.83000000    55.18000000    47.06000000
   N     49.90000000    55.73000000    47.61000000
   C     48.49000000    55.78000000    47.30000000
   C     48.33000000    55.97000000    45.80000000
   O     49.29000000    56.24000000    45.09000000
   C     47.84000000    56.81000000    48.21000000
   C     47.58000000    58.18000000    47.60000000
   N     48.55000000    59.10000000    47.68000000
   O     46.60000000    58.53000000    46.95000000
   H     50.31000000    56.63000000    47.81000000
   H     48.18000000    54.81000000    47.69000000
   H     48.52000000    56.99000000    49.04000000
   H     46.92000000    56.32000000    48.54000000
   H     49.50000000    58.82000000    47.88000000
   H     48.32000000    60.04000000    47.39000000
   N     47.09000000    55.91000000    45.30000000
   C     46.82000000    56.08000000    43.89000000
   C     47.45000000    57.33000000    43.29000000
   O     48.04000000    57.36000000    42.21000000
   C     45.32000000    55.99000000    43.62000000
   C     44.92000000    55.72000000    42.19000000
   C     45.47000000    54.62000000    41.52000000
   C     44.18000000    56.65000000    41.45000000
   C     45.26000000    54.39000000    40.16000000
   C     44.01000000    56.48000000    40.07000000
   C     44.51000000    55.33000000    39.43000000
   O     44.08000000    55.07000000    38.16000000
   H     46.30000000    55.77000000    45.92000000
   H     47.30000000    55.31000000    43.28000000
   H     44.78000000    56.83000000    44.05000000
   H     45.00000000    55.12000000    44.20000000
   H     46.01000000    53.93000000    42.15000000
   H     43.81000000    57.54000000    41.94000000
   H     45.78000000    53.55000000    39.71000000
   H     43.45000000    57.24000000    39.54000000
   H     43.59000000    55.77000000    37.72000000
   N     47.33000000    58.47000000    43.97000000
   C     47.75000000    59.75000000    43.44000000
   C     49.26000000    59.89000000    43.38000000
   O     49.76000000    60.71000000    42.62000000
   C     47.09000000    60.87000000    44.24000000
   C     45.58000000    61.01000000    44.07000000
   C     45.03000000    62.17000000    44.89000000
   O     44.08000000    61.91000000    45.66000000
   O     45.57000000    63.29000000    44.87000000
   H     46.97000000    58.41000000    44.92000000
   H     47.43000000    59.94000000    42.42000000
   H     47.63000000    61.78000000    44.00000000
   H     47.20000000    60.69000000    45.31000000
   H     45.11000000    60.08000000    44.37000000
   H     45.41000000    61.26000000    43.02000000
   N     50.05000000    59.17000000    44.18000000
   C     51.48000000    58.99000000    44.03000000
   C     51.76000000    58.07000000    42.85000000
   O     52.79000000    58.14000000    42.19000000
   C     52.10000000    58.45000000    45.32000000
   C     51.98000000    59.47000000    46.45000000
   C     52.06000000    58.85000000    47.84000000
   O     53.21000000    58.78000000    48.35000000
   O     51.14000000    58.34000000    48.51000000
   H     49.69000000    58.58000000    44.92000000
   H     51.89000000    59.98000000    43.82000000
   H     53.14000000    58.14000000    45.22000000
   H     51.54000000    57.56000000    45.61000000
   H     51.09000000    60.11000000    46.49000000
   H     52.75000000    60.22000000    46.34000000
   N     50.86000000    57.14000000    42.51000000
   C     51.00000000    56.10000000    41.51000000
   H     52.04000000    55.77700000    41.46600000
   H     50.36800000    55.25300000    41.77500000
   H     50.69900000    56.48800000    40.53700000
   H     50.09000000    57.03000000    43.15000000
  Ca     52.58000000    58.58000000    51.01000000
   O     50.19000000    58.33000000    51.87000000
   H     50.46000000    58.13000000    52.76000000
   H     49.29000000    58.64000000    51.95000000

Ca 1.00



