%chk=loop1.cluster95.chk
%nprocshared=20
%mem=10GB
%nosave
#b3lyp/svp scf=(tight,noincore,xqc) Test 
#IOP(5/87=12) Density=Current Pop=(MK,readradii) iop(6/33=2) iop(6/42=6)

loop1.cluster95 

   0  1 
   C     68.20000000    57.30000000    46.53000000
   C     67.26000000    56.53000000    45.61000000
   O     66.35000000    55.78000000    45.95000000
   H     69.08900000    57.59700000    45.97400000
   H     67.69400000    58.18900000    46.90600000
   H     68.49100000    56.66500000    47.36700000
   N     67.51000000    56.79000000    44.33000000
   C     66.79000000    56.25000000    43.19000000
   C     65.28000000    56.41000000    43.30000000
   O     64.55000000    55.47000000    43.00000000
   C     67.32000000    54.89000000    42.74000000
   C     66.81000000    54.28000000    41.44000000
   O     66.89000000    53.04000000    41.29000000
   O     66.40000000    55.02000000    40.53000000
   H     68.27000000    57.42000000    44.14000000
   H     67.02000000    56.92000000    42.37000000
   H     67.29000000    54.20000000    43.58000000
   H     68.40000000    54.95000000    42.56000000
   N     64.82000000    57.56000000    43.79000000
   C     63.43000000    57.70000000    44.14000000
   C     62.57000000    58.60000000    43.25000000
   O     61.35000000    58.64000000    43.36000000
   C     63.24000000    57.95000000    45.64000000
   C     63.62000000    59.37000000    46.05000000
   C     63.29000000    59.67000000    47.51000000
   C     61.82000000    59.77000000    47.91000000
   N     61.74000000    60.10000000    49.34000000
   H     65.50000000    58.30000000    43.88000000
   H     62.98000000    56.73000000    43.93000000
   H     63.87000000    57.19000000    46.08000000
   H     62.19000000    57.81000000    45.90000000
   H     63.19000000    60.11000000    45.38000000
   H     64.69000000    59.57000000    46.08000000
   H     63.74000000    60.65000000    47.66000000
   H     63.84000000    58.92000000    48.08000000
   H     61.24000000    58.91000000    47.60000000
   H     61.37000000    60.59000000    47.35000000
   H     60.84000000    60.34000000    49.73000000
   H     62.14000000    59.33000000    49.86000000
   H     62.32000000    60.92000000    49.48000000
   N     63.24000000    59.33000000    42.36000000
   C     62.69000000    60.42000000    41.58000000
   C     62.12000000    59.89000000    40.27000000
   O     61.97000000    60.72000000    39.38000000
   C     63.53000000    61.70000000    41.52000000
   C     62.80000000    62.92000000    40.98000000
   O     63.48000000    63.81000000    40.44000000
   O     61.57000000    63.12000000    41.14000000
   H     64.24000000    59.20000000    42.28000000
   H     61.83000000    60.76000000    42.15000000
   H     64.47000000    61.55000000    40.99000000
   H     63.85000000    61.98000000    42.52000000
   N     61.88000000    58.60000000    40.04000000
   C     61.39000000    58.00000000    38.81000000
   C     62.43000000    58.02000000    37.70000000
   O     63.17000000    57.06000000    37.47000000
   H     62.08000000    57.90000000    40.74000000
   H     60.43000000    58.44000000    38.54000000
   H     61.17000000    56.96000000    39.03000000
   N     62.43000000    59.14000000    36.97000000
   C     63.40000000    59.40000000    35.93000000
   C     64.56000000    60.33000000    36.27000000
   O     65.61000000    60.03000000    35.72000000
   C     62.68000000    60.06000000    34.76000000
   C     61.47000000    60.95000000    34.99000000
   O     60.57000000    60.98000000    34.12000000
   O     61.32000000    61.68000000    35.99000000
   H     61.70000000    59.80000000    37.16000000
   H     63.84000000    58.46000000    35.61000000
   H     62.40000000    59.25000000    34.08000000
   H     63.40000000    60.69000000    34.25000000
   N     64.28000000    61.30000000    37.15000000
   C     65.21000000    62.35000000    37.53000000
   C     66.35000000    61.93000000    38.44000000
   O     66.30000000    60.90000000    39.11000000
   H     63.37000000    61.36000000    37.58000000
   H     64.63000000    63.09000000    38.07000000
   H     65.62000000    62.85000000    36.65000000
   N     67.34000000    62.81000000    38.60000000
   C     68.54000000    62.48000000    39.34000000
   C     69.78000000    63.10000000    38.71000000
   O     69.81000000    64.15000000    38.08000000
   C     68.50000000    62.88000000    40.81000000
   C     68.33000000    64.38000000    41.05000000
   O     67.37000000    62.35000000    41.46000000
   H     67.21000000    63.68000000    38.09000000
   H     68.66000000    61.40000000    39.29000000
   H     69.40000000    62.53000000    41.32000000
   H     66.61000000    62.42000000    40.88000000
   H     68.55000000    64.49000000    42.11000000
   H     69.05000000    64.94000000    40.46000000
   H     67.32000000    64.60000000    40.69000000
   N     70.92000000    62.47000000    39.01000000
   C     72.27000000    62.86000000    38.65000000
   C     73.06000000    61.85000000    37.83000000
   O     74.06000000    62.26000000    37.25000000
   C     72.97000000    63.24000000    39.96000000
   C     74.33000000    63.93000000    39.85000000
   C     73.15000000    62.10000000    40.96000000
   C     74.29000000    65.27000000    39.12000000
   H     70.79000000    61.69000000    39.63000000
   H     72.19000000    63.78000000    38.07000000
   H     72.32000000    64.01000000    40.37000000
   H     75.05000000    63.26000000    39.39000000
   H     74.76000000    64.08000000    40.84000000
   H     73.78000000    61.32000000    40.53000000
   H     73.54000000    62.36000000    41.94000000
   H     72.18000000    61.66000000    41.21000000
   H     75.25000000    65.78000000    39.13000000
   H     74.07000000    65.13000000    38.06000000
   H     73.54000000    65.83000000    39.68000000
   N     72.68000000    60.57000000    37.88000000
   C     73.24000000    59.48000000    37.10000000
   C     73.47000000    58.20000000    37.89000000
   O     72.59000000    57.79000000    38.65000000
   C     72.51000000    59.15000000    35.81000000
   C     71.00000000    59.00000000    35.93000000
   O     72.63000000    60.26000000    34.94000000
   H     71.91000000    60.34000000    38.49000000
   H     74.28000000    59.77000000    36.94000000
   H     72.90000000    58.27000000    35.30000000
   H     73.46000000    60.72000000    35.11000000
   H     70.79000000    58.24000000    36.68000000
   H     70.58000000    59.95000000    36.28000000
   H     70.51000000    58.74000000    34.99000000
   N     74.51000000    57.40000000    37.62000000
   C     74.67000000    56.11000000    38.26000000
   C     75.95000000    55.94000000    39.06000000
   O     76.10000000    55.01000000    39.86000000
   C     74.67000000    55.02000000    37.19000000
   C     74.62000000    53.61000000    37.76000000
   O     75.77000000    55.17000000    36.32000000
   H     75.29000000    57.76000000    37.10000000
   H     73.88000000    55.99000000    39.01000000
   H     73.76000000    55.20000000    36.62000000
   H     75.56000000    55.83000000    35.65000000
   H     75.63000000    53.19000000    37.68000000
   H     74.36000000    53.62000000    38.81000000
   H     73.94000000    53.14000000    37.05000000
   N     76.87000000    56.91000000    39.03000000
   C     78.14000000    56.84000000    39.72000000
   C     78.54000000    58.07000000    40.52000000
   O     78.30000000    59.19000000    40.08000000
   C     79.15000000    56.51000000    38.63000000
   C     80.28000000    55.63000000    39.15000000
   C     81.20000000    55.03000000    38.09000000
   C     82.13000000    56.06000000    37.46000000
   N     83.24000000    55.45000000    36.71000000
   H     76.64000000    57.74000000    38.49000000
   H     78.16000000    55.98000000    40.40000000
   H     79.53000000    57.42000000    38.16000000
   H     78.65000000    55.85000000    37.93000000
   H     79.85000000    54.78000000    39.68000000
   H     80.92000000    56.15000000    39.87000000
   H     80.65000000    54.51000000    37.30000000
   H     81.79000000    54.26000000    38.59000000
   H     82.53000000    56.73000000    38.22000000
   H     81.52000000    56.73000000    36.85000000
   H     83.82000000    54.88000000    37.31000000
   H     82.92000000    54.94000000    35.90000000
   H     83.88000000    56.17000000    36.42000000
   N     79.19000000    57.80000000    41.65000000
   C     79.68000000    58.84000000    42.54000000
   C     78.62000000    59.68000000    43.24000000
   O     78.88000000    60.86000000    43.45000000
   C     80.84000000    58.37000000    43.41000000
   C     82.16000000    58.33000000    42.65000000
   C     82.92000000    59.65000000    42.55000000
   O     83.28000000    60.28000000    43.57000000
   O     83.11000000    60.17000000    41.43000000
   H     79.52000000    56.85000000    41.74000000
   H     80.12000000    59.56000000    41.86000000
   H     80.60000000    57.41000000    43.87000000
   H     81.03000000    59.05000000    44.25000000
   H     81.96000000    57.97000000    41.64000000
   H     82.73000000    57.59000000    43.21000000
   N     77.57000000    59.18000000    43.89000000
   C     76.81000000    57.95000000    43.83000000
   H     75.86400000    58.13300000    43.32000000
   H     77.37800000    57.19800000    43.28200000
   H     76.61400000    57.59300000    44.84100000
   H     77.16000000    59.89000000    44.48000000
  Ca     59.61000000    63.10000000    37.17000000
   O     58.99000000    65.72000000    37.74000000
   H     59.04000000    66.27000000    36.96000000
   H     58.50000000    66.24000000    38.37000000
   O     56.98000000    63.13000000    37.76000000
   H     56.73000000    63.34000000    38.66000000
   H     56.32000000    62.49000000    37.47000000
   O     58.89000000    60.53000000    37.85000000
   H     59.00000000    59.95000000    38.60000000
   H     58.25000000    60.09000000    37.29000000
   O     60.80000000    64.58000000    35.21000000
   H     60.49000000    65.48000000    35.15000000
   H     61.00000000    64.34000000    34.30000000
   O     58.31000000    62.20000000    34.94000000
   H     57.59000000    62.21000000    34.31000000
   H     59.01000000    61.73000000    34.49000000
   O     59.35000000    62.76000000    39.89000000
   H     58.97000000    61.98000000    40.30000000
   H     60.27000000    62.75000000    40.18000000
   O     61.79000000    63.97000000    38.34000000
   H     62.37000000    63.60000000    39.01000000
   H     61.92000000    64.92000000    38.42000000

Ca 1.00



