%chk=loop1.cluster75.chk
%nprocshared=20
%mem=10GB
%nosave
#b3lyp/svp scf=(tight,noincore,xqc) Test 
#IOP(5/87=12) Density=Current Pop=(MK,readradii) iop(6/33=2) iop(6/42=6)

loop1.cluster75 

   0  1 
   C     82.59000000    49.61000000    14.58000000
   C     82.16000000    49.07000000    13.22000000
   O     81.33000000    48.18000000    13.11000000
   H     83.44900000    50.26900000    14.45400000
   H     81.76700000    50.16800000    15.02700000
   H     82.86300000    48.78000000    15.23200000
   N     82.71000000    49.68000000    12.16000000
   C     82.42000000    49.45000000    10.76000000
   C     83.08000000    48.24000000    10.10000000
   O     84.29000000    48.08000000    10.13000000
   C     82.79000000    50.71000000     9.99000000
   C     82.04000000    50.70000000     8.67000000
   O     80.91000000    51.22000000     8.57000000
   O     82.54000000    50.08000000     7.71000000
   H     83.45000000    50.32000000    12.40000000
   H     81.36000000    49.35000000    10.52000000
   H     83.85000000    50.70000000     9.75000000
   H     82.70000000    51.61000000    10.60000000
   N     82.25000000    47.37000000     9.52000000
   C     82.61000000    46.01000000     9.17000000
   C     82.69000000    45.70000000     7.68000000
   O     82.64000000    44.52000000     7.33000000
   C     81.79000000    45.05000000    10.03000000
   C     81.97000000    44.99000000    11.55000000
   C     83.37000000    44.57000000    11.98000000
   C     83.44000000    43.89000000    13.35000000
   N     82.98000000    44.86000000    14.36000000
   H     81.27000000    47.61000000     9.49000000
   H     83.65000000    45.87000000     9.45000000
   H     82.18000000    44.09000000     9.71000000
   H     80.72000000    45.10000000     9.83000000
   H     81.20000000    44.32000000    11.93000000
   H     81.85000000    45.96000000    12.03000000
   H     84.04000000    45.43000000    11.95000000
   H     83.81000000    43.82000000    11.33000000
   H     84.42000000    43.49000000    13.58000000
   H     82.70000000    43.09000000    13.31000000
   H     82.96000000    44.35000000    15.22000000
   H     83.60000000    45.65000000    14.48000000
   H     82.04000000    45.21000000    14.22000000
   N     82.67000000    46.71000000     6.81000000
   C     82.91000000    46.53000000     5.40000000
   C     83.79000000    47.65000000     4.85000000
   O     84.28000000    47.45000000     3.74000000
   C     81.56000000    46.54000000     4.69000000
   C     80.72000000    47.70000000     5.21000000
   O     81.19000000    48.86000000     5.22000000
   O     79.62000000    47.44000000     5.74000000
   H     82.62000000    47.63000000     7.23000000
   H     83.38000000    45.58000000     5.16000000
   H     80.99000000    45.65000000     4.93000000
   H     81.62000000    46.50000000     3.61000000
   N     84.13000000    48.77000000     5.50000000
   C     84.98000000    49.79000000     4.91000000
   C     84.35000000    50.77000000     3.94000000
   O     85.13000000    51.35000000     3.18000000
   H     83.64000000    48.99000000     6.35000000
   H     85.81000000    49.30000000     4.39000000
   H     85.47000000    50.21000000     5.79000000
   N     83.03000000    50.94000000     3.99000000
   C     82.30000000    51.91000000     3.19000000
   C     82.31000000    53.32000000     3.74000000
   O     81.82000000    54.24000000     3.08000000
   C     80.89000000    51.41000000     2.91000000
   C     80.02000000    51.27000000     4.15000000
   O     80.37000000    51.82000000     5.22000000
   O     78.90000000    50.72000000     4.12000000
   H     82.53000000    50.28000000     4.57000000
   H     82.84000000    52.04000000     2.25000000
   H     80.94000000    50.40000000     2.51000000
   H     80.37000000    51.98000000     2.14000000
   N     82.86000000    53.58000000     4.93000000
   C     82.80000000    54.91000000     5.51000000
   C     81.51000000    55.26000000     6.24000000
   O     81.46000000    56.44000000     6.58000000
   H     83.18000000    52.83000000     5.52000000
   H     83.02000000    55.66000000     4.75000000
   H     83.64000000    54.89000000     6.20000000
   N     80.55000000    54.37000000     6.51000000
   C     79.22000000    54.63000000     7.01000000
   C     78.65000000    53.49000000     7.84000000
   O     78.40000000    52.42000000     7.30000000
   C     78.14000000    54.87000000     5.96000000
   C     78.12000000    56.33000000     5.49000000
   O     78.22000000    54.05000000     4.82000000
   H     80.67000000    53.43000000     6.15000000
   H     79.19000000    55.51000000     7.66000000
   H     77.17000000    54.71000000     6.43000000
   H     78.63000000    53.23000000     5.13000000
   H     79.10000000    56.74000000     5.25000000
   H     77.38000000    56.46000000     4.70000000
   H     77.80000000    57.08000000     6.22000000
   N     78.56000000    53.78000000     9.14000000
   C     78.22000000    52.89000000    10.24000000
   C     76.70000000    52.78000000    10.19000000
   O     75.98000000    53.76000000    10.04000000
   C     78.70000000    53.47000000    11.57000000
   C     80.22000000    53.39000000    11.66000000
   C     78.13000000    52.73000000    12.78000000
   C     80.91000000    54.08000000    12.83000000
   H     78.70000000    54.75000000     9.36000000
   H     78.66000000    51.90000000    10.17000000
   H     78.33000000    54.50000000    11.56000000
   H     80.68000000    53.81000000    10.76000000
   H     80.56000000    52.36000000    11.69000000
   H     78.24000000    53.31000000    13.69000000
   H     77.06000000    52.65000000    12.59000000
   H     78.55000000    51.72000000    12.75000000
   H     80.90000000    55.17000000    12.86000000
   H     80.50000000    53.77000000    13.79000000
   H     81.97000000    53.85000000    12.81000000
   N     76.22000000    51.53000000    10.21000000
   C     74.81000000    51.24000000    10.40000000
   C     74.33000000    50.99000000    11.83000000
   O     75.15000000    50.49000000    12.59000000
   C     74.45000000    49.99000000     9.61000000
   C     74.60000000    50.23000000     8.11000000
   O     75.41000000    48.98000000     9.85000000
   H     76.77000000    50.70000000    10.33000000
   H     74.18000000    52.05000000    10.05000000
   H     73.40000000    49.76000000     9.81000000
   H     76.17000000    49.09000000     9.28000000
   H     74.39000000    49.27000000     7.62000000
   H     73.77000000    50.89000000     7.86000000
   H     75.56000000    50.69000000     7.88000000
   N     73.04000000    51.14000000    12.13000000
   C     72.48000000    50.67000000    13.38000000
   C     72.91000000    49.30000000    13.88000000
   O     73.26000000    49.21000000    15.06000000
   C     70.96000000    50.74000000    13.30000000
   C     70.22000000    52.04000000    13.04000000
   O     70.51000000    49.89000000    12.27000000
   H     72.51000000    51.70000000    11.49000000
   H     72.75000000    51.42000000    14.13000000
   H     70.60000000    50.29000000    14.23000000
   H     69.64000000    49.55000000    12.50000000
   H     70.31000000    52.30000000    11.98000000
   H     69.17000000    51.87000000    13.27000000
   H     70.65000000    52.85000000    13.62000000
   N     73.01000000    48.29000000    13.02000000
   C     73.54000000    46.95000000    13.23000000
   C     75.04000000    46.86000000    13.43000000
   O     75.51000000    46.26000000    14.40000000
   C     73.04000000    45.98000000    12.17000000
   C     73.48000000    46.33000000    10.75000000
   C     73.26000000    45.19000000     9.75000000
   C     73.69000000    45.58000000     8.34000000
   N     73.27000000    44.62000000     7.30000000
   H     72.51000000    48.43000000    12.15000000
   H     73.12000000    46.53000000    14.14000000
   H     71.97000000    45.83000000    12.30000000
   H     73.53000000    45.03000000    12.38000000
   H     74.55000000    46.50000000    10.68000000
   H     72.98000000    47.26000000    10.48000000
   H     72.23000000    44.85000000     9.75000000
   H     73.77000000    44.31000000    10.14000000
   H     74.76000000    45.76000000     8.38000000
   H     73.23000000    46.54000000     8.11000000
   H     73.43000000    44.98000000     6.37000000
   H     73.75000000    43.73000000     7.29000000
   H     72.27000000    44.51000000     7.25000000
   N     75.86000000    47.59000000    12.67000000
   C     77.29000000    47.68000000    12.89000000
   C     77.64000000    48.29000000    14.24000000
   O     78.53000000    47.78000000    14.92000000
   C     77.96000000    48.41000000    11.73000000
   C     78.04000000    47.55000000    10.47000000
   C     78.52000000    48.48000000     9.36000000
   O     77.81000000    49.34000000     8.81000000
   O     79.66000000    48.20000000     8.93000000
   H     75.49000000    48.16000000    11.92000000
   H     77.69000000    46.67000000    13.00000000
   H     78.99000000    48.64000000    12.00000000
   H     77.37000000    49.30000000    11.52000000
   H     77.08000000    47.09000000    10.26000000
   H     78.79000000    46.77000000    10.60000000
   N     76.96000000    49.37000000    14.63000000
   C     76.97000000    49.91000000    15.97000000
   H     76.59400000    50.93300000    15.95200000
   H     76.33400000    49.30100000    16.61300000
   H     77.98900000    49.90500000    16.35700000
   H     76.24000000    49.69000000    14.00000000
  Ca     79.57000000    49.98000000     6.86000000
   O     77.38000000    49.16000000     5.72000000
   H     77.75000000    49.17000000     4.84000000
   H     76.68000000    49.82000000     5.68000000

Ca 1.00



