%chk=loop3.cluster191.chk
%nprocshared=20
%mem=10GB
%nosave
#b3lyp/svp scf=(tight,noincore,xqc) Test 
#IOP(5/87=12) Density=Current Pop=(MK,readradii) iop(6/33=2) iop(6/42=6)

loop3.cluster191 

   0  1 
   C     92.14000000    63.22000000    26.68000000
   C     92.74000000    61.84000000    26.45000000
   O     92.61000000    60.98000000    27.32000000
   H     91.16800000    63.11700000    27.16100000
   H     92.80200000    63.80300000    27.32100000
   H     92.01900000    63.72800000    25.72300000
   N     93.48000000    61.59000000    25.37000000
   C     94.26000000    60.37000000    25.29000000
   C     95.57000000    60.50000000    26.06000000
   O     95.99000000    61.61000000    26.36000000
   C     94.41000000    59.99000000    23.82000000
   C     94.82000000    58.53000000    23.68000000
   O     94.46000000    57.76000000    24.60000000
   O     95.49000000    58.21000000    22.67000000
   H     93.63000000    62.30000000    24.67000000
   H     93.66000000    59.61000000    25.79000000
   H     95.24000000    60.61000000    23.48000000
   H     93.51000000    60.14000000    23.24000000
   N     96.22000000    59.38000000    26.40000000
   C     97.31000000    59.34000000    27.35000000
   C     98.61000000    59.93000000    26.83000000
   O     99.59000000    59.97000000    27.57000000
   C     97.43000000    57.96000000    28.01000000
   C     97.92000000    56.94000000    26.99000000
   C     98.01000000    55.59000000    27.69000000
   C     98.77000000    54.72000000    26.70000000
   N     97.91000000    54.34000000    25.58000000
   H     95.67000000    58.58000000    26.16000000
   H     97.01000000    59.98000000    28.18000000
   H     96.46000000    57.64000000    28.39000000
   H     98.10000000    58.07000000    28.87000000
   H     98.84000000    57.27000000    26.51000000
   H     97.26000000    56.85000000    26.12000000
   H     97.02000000    55.16000000    27.89000000
   H     98.56000000    55.65000000    28.63000000
   H     99.04000000    53.81000000    27.24000000
   H     99.66000000    55.31000000    26.45000000
   H     97.03000000    54.05000000    25.98000000
   H     97.64000000    55.14000000    25.02000000
   H     98.25000000    53.56000000    25.03000000
   N     98.70000000    60.36000000    25.57000000
   C     99.84000000    60.93000000    24.89000000
   C     99.62000000    62.31000000    24.29000000
   O    100.55000000    62.90000000    23.75000000
   C    100.29000000    59.99000000    23.76000000
   C     99.14000000    59.49000000    22.90000000
   O     98.07000000    60.13000000    22.84000000
   O     99.21000000    58.35000000    22.39000000
   H     97.86000000    60.35000000    25.00000000
   H    100.65000000    61.04000000    25.61000000
   H    100.84000000    59.10000000    24.05000000
   H    100.92000000    60.41000000    22.98000000
   N     98.39000000    62.81000000    24.42000000
   C     98.00000000    64.17000000    24.14000000
   C     98.11000000    64.46000000    22.65000000
   O     98.11000000    65.62000000    22.25000000
   H     97.64000000    62.24000000    24.78000000
   H     98.60000000    64.94000000    24.63000000
   H     96.97000000    64.28000000    24.47000000
   N     98.13000000    63.37000000    21.87000000
   C     98.12000000    63.39000000    20.42000000
   C     97.00000000    62.62000000    19.75000000
   O     96.62000000    61.53000000    20.19000000
   C     99.50000000    62.94000000    19.95000000
   C     99.56000000    62.56000000    18.48000000
   N    100.16000000    63.44000000    17.67000000
   O     98.93000000    61.60000000    18.05000000
   H     97.92000000    62.49000000    22.30000000
   H     98.03000000    64.42000000    20.07000000
   H     99.80000000    62.04000000    20.48000000
   H    100.21000000    63.75000000    20.16000000
   H    100.83000000    64.12000000    18.00000000
   H    100.31000000    62.98000000    16.78000000
   N     96.40000000    63.27000000    18.75000000
   C     95.16000000    62.86000000    18.11000000
   C     95.18000000    61.64000000    17.21000000
   O     94.08000000    61.13000000    17.01000000
   H     96.80000000    64.17000000    18.53000000
   H     94.78000000    63.68000000    17.50000000
   H     94.48000000    62.70000000    18.95000000
   N     96.36000000    61.21000000    16.74000000
   C     96.40000000    59.91000000    16.10000000
   C     96.13000000    58.74000000    17.04000000
   O     96.44000000    58.73000000    18.23000000
   C     97.65000000    59.78000000    15.24000000
   C     97.79000000    60.85000000    14.18000000
   C     97.19000000    60.60000000    12.94000000
   C     98.56000000    62.00000000    14.38000000
   C     97.34000000    61.56000000    11.94000000
   C     98.66000000    62.97000000    13.37000000
   C     98.02000000    62.77000000    12.13000000
   O     98.08000000    63.75000000    11.18000000
   H     97.24000000    61.67000000    16.92000000
   H     95.63000000    59.88000000    15.33000000
   H     97.60000000    58.83000000    14.71000000
   H     98.50000000    59.76000000    15.92000000
   H     96.56000000    59.74000000    12.74000000
   H     99.10000000    62.14000000    15.31000000
   H     96.86000000    61.41000000    10.98000000
   H     99.08000000    63.94000000    13.59000000
   H     98.57000000    64.53000000    11.44000000
   N     95.54000000    57.67000000    16.52000000
   C     95.42000000    56.35000000    17.12000000
   C     96.72000000    55.60000000    17.39000000
   O     97.71000000    56.27000000    17.64000000
   C     94.46000000    56.39000000    18.30000000
   C     94.46000000    55.19000000    19.25000000
   C     93.07000000    56.76000000    17.79000000
   C     93.95000000    55.67000000    20.61000000
   H     95.38000000    57.73000000    15.53000000
   H     94.97000000    55.76000000    16.33000000
   H     94.70000000    57.25000000    18.92000000
   H     95.44000000    54.79000000    19.52000000
   H     93.76000000    54.43000000    18.90000000
   H     92.37000000    56.45000000    18.56000000
   H     93.12000000    57.83000000    17.60000000
   H     92.87000000    56.23000000    16.85000000
   H     92.98000000    56.17000000    20.52000000
   H     93.89000000    54.88000000    21.36000000
   H     94.67000000    56.35000000    21.05000000
   N     96.72000000    54.27000000    17.22000000
   C     97.95000000    53.52000000    17.10000000
   C     97.92000000    52.19000000    16.38000000
   O     98.94000000    51.49000000    16.30000000
   C     98.63000000    53.36000000    18.47000000
   O     97.85000000    52.49000000    19.25000000
   H     95.84000000    53.86000000    16.93000000
   H     98.68000000    54.15000000    16.59000000
   H     98.71000000    54.31000000    19.01000000
   H     99.65000000    52.98000000    18.41000000
   H     97.54000000    52.98000000    20.02000000
   N     96.78000000    51.80000000    15.82000000
   C     96.41000000    50.47000000    15.37000000
   C     96.83000000    49.44000000    16.41000000
   O     97.58000000    48.49000000    16.21000000
   C     96.88000000    50.20000000    13.95000000
   H     96.07000000    52.52000000    15.81000000
   H     95.32000000    50.47000000    15.46000000
   H     97.96000000    50.09000000    13.84000000
   H     96.39000000    49.29000000    13.59000000
   H     96.54000000    51.02000000    13.31000000
   N     96.29000000    49.51000000    17.63000000
   C     95.07000000    50.19000000    18.02000000
   C     93.90000000    49.30000000    17.62000000
   O     94.05000000    48.11000000    17.35000000
   C     95.07000000    50.34000000    19.54000000
   H     96.65000000    48.84000000    18.30000000
   H     94.99000000    51.11000000    17.45000000
   H     94.19000000    50.83000000    19.96000000
   H     95.19000000    49.40000000    20.09000000
   H     95.89000000    50.99000000    19.84000000
   N     92.71000000    49.90000000    17.43000000
   C     92.24000000    51.15000000    17.97000000
   C     91.33000000    51.83000000    16.94000000
   O     91.26000000    53.06000000    16.96000000
   C     91.39000000    50.84000000    19.20000000
   C     90.95000000    52.08000000    19.99000000
   C     90.19000000    51.64000000    21.24000000
   O     88.96000000    51.43000000    21.20000000
   O     90.76000000    51.41000000    22.33000000
   H     91.98000000    49.23000000    17.23000000
   H     93.08000000    51.79000000    18.25000000
   H     91.89000000    50.19000000    19.92000000
   H     90.49000000    50.30000000    18.89000000
   H     90.31000000    52.65000000    19.32000000
   H     91.77000000    52.70000000    20.35000000
   N     90.53000000    51.15000000    16.13000000
   C     89.45000000    51.67000000    15.31000000
   H     88.61700000    51.96300000    15.95000000
   H     89.80200000    52.53800000    14.75300000
   H     89.11900000    50.90000000    14.61300000
   H     90.59000000    50.15000000    16.27000000
  Ca     96.88000000    59.10000000    20.92000000
   O     94.36000000    59.83000000    20.31000000
   H     93.99000000    60.68000000    20.56000000
   H     93.72000000    59.46000000    19.70000000
   O     97.49000000    56.59000000    20.28000000
   H     97.91000000    56.38000000    19.45000000
   H     97.38000000    55.75000000    20.72000000
   O     99.04000000    59.44000000    19.52000000
   H     99.15000000    59.92000000    18.70000000
   H     99.92000000    59.25000000    19.82000000

Ca 1.00



