%chk=loop2.cluster35.chk
%nprocshared=20
%mem=10GB
%nosave
#b3lyp/svp scf=(tight,noincore,xqc) Test 
#IOP(5/87=12) Density=Current Pop=(MK,readradii) iop(6/33=2) iop(6/42=6)

loop2.cluster35 

   -2  1 
   C     60.85000000    46.89000000    51.84000000
   C     60.02000000    46.87000000    50.56000000
   O     59.28000000    45.94000000    50.27000000
   H     61.74300000    47.49500000    51.68400000
   H     60.25900000    47.31800000    52.65000000
   H     61.14200000    45.87300000    52.10000000
   N     60.20000000    47.89000000    49.70000000
   C     59.59000000    47.94000000    48.39000000
   C     58.09000000    48.18000000    48.45000000
   O     57.54000000    48.65000000    49.44000000
   C     60.24000000    49.02000000    47.53000000
   C     61.76000000    48.88000000    47.53000000
   O     62.45000000    49.45000000    48.40000000
   O     62.26000000    48.27000000    46.56000000
   H     60.88000000    48.61000000    49.90000000
   H     59.67000000    46.96000000    47.91000000
   H     60.01000000    49.98000000    47.98000000
   H     59.86000000    48.87000000    46.52000000
   N     57.47000000    47.84000000    47.32000000
   C     56.05000000    48.08000000    47.12000000
   C     55.30000000    47.02000000    47.92000000
   O     55.75000000    45.98000000    48.39000000
   C     55.73000000    47.86000000    45.65000000
   H     57.99000000    47.39000000    46.58000000
   H     55.70000000    49.06000000    47.44000000
   H     56.28000000    48.62000000    45.10000000
   H     55.99000000    46.85000000    45.32000000
   H     54.67000000    47.91000000    45.43000000
   N     53.97000000    47.09000000    48.09000000
   C     53.02000000    48.15000000    47.83000000
   C     53.14000000    49.40000000    48.69000000
   O     53.70000000    49.48000000    49.78000000
   C     51.59000000    47.64000000    47.93000000
   C     51.18000000    46.65000000    49.01000000
   O     50.01000000    46.21000000    48.97000000
   O     52.04000000    46.25000000    49.82000000
   H     53.62000000    46.48000000    48.81000000
   H     53.14000000    48.40000000    46.78000000
   H     51.31000000    47.18000000    46.98000000
   H     50.88000000    48.47000000    47.95000000
   N     52.56000000    50.49000000    48.18000000
   C     52.74000000    51.81000000    48.76000000
   C     53.96000000    52.58000000    48.29000000
   O     54.56000000    52.18000000    47.29000000
   H     52.29000000    50.40000000    47.21000000
   H     52.78000000    51.71000000    49.84000000
   H     51.78000000    52.26000000    48.48000000
   N     54.28000000    53.75000000    48.86000000
   C     53.71000000    54.39000000    50.02000000
   C     54.80000000    54.79000000    51.00000000
   O     55.19000000    55.94000000    51.18000000
   C     52.92000000    55.58000000    49.49000000
   C     51.74000000    55.14000000    48.63000000
   N     50.59000000    54.82000000    49.23000000
   O     51.79000000    55.04000000    47.41000000
   H     55.12000000    54.20000000    48.53000000
   H     53.04000000    53.79000000    50.63000000
   H     53.57000000    56.16000000    48.83000000
   H     52.45000000    56.07000000    50.34000000
   H     50.43000000    54.89000000    50.22000000
   H     49.97000000    54.23000000    48.70000000
   N     55.34000000    53.74000000    51.63000000
   C     56.61000000    53.83000000    52.32000000
   C     56.64000000    53.19000000    53.70000000
   O     57.70000000    53.00000000    54.29000000
   H     54.95000000    52.81000000    51.56000000
   H     57.01000000    54.84000000    52.43000000
   H     57.26000000    53.27000000    51.65000000
   N     55.52000000    52.60000000    54.14000000
   C     55.39000000    51.86000000    55.37000000
   C     54.59000000    50.57000000    55.23000000
   O     53.66000000    50.56000000    54.43000000
   C     54.77000000    52.74000000    56.45000000
   C     55.72000000    53.81000000    56.98000000
   O     53.57000000    53.38000000    56.09000000
   H     54.65000000    52.78000000    53.67000000
   H     56.41000000    51.61000000    55.65000000
   H     54.50000000    52.09000000    57.28000000
   H     53.02000000    53.30000000    56.88000000
   H     55.98000000    54.56000000    56.23000000
   H     55.18000000    54.45000000    57.67000000
   H     56.62000000    53.43000000    57.47000000
   N     54.97000000    49.52000000    55.97000000
   C     54.46000000    48.17000000    56.01000000
   C     53.18000000    48.08000000    56.83000000
   O     52.80000000    49.01000000    57.53000000
   C     55.48000000    47.05000000    56.21000000
   C     56.63000000    47.12000000    55.21000000
   C     55.91000000    47.03000000    57.68000000
   C     57.50000000    45.86000000    55.21000000
   H     55.80000000    49.69000000    56.53000000
   H     54.27000000    47.96000000    54.95000000
   H     54.90000000    46.18000000    55.90000000
   H     57.35000000    47.88000000    55.50000000
   H     56.08000000    47.20000000    54.27000000
   H     56.30000000    48.01000000    57.91000000
   H     55.02000000    46.96000000    58.32000000
   H     56.65000000    46.25000000    57.84000000
   H     58.05000000    45.97000000    54.27000000
   H     58.13000000    45.82000000    56.09000000
   H     56.85000000    44.99000000    55.11000000
   N     52.45000000    46.97000000    56.68000000
   C     51.19000000    46.74000000    57.36000000
   C     50.99000000    45.25000000    57.60000000
   O     51.55000000    44.47000000    56.83000000
   C     50.05000000    47.29000000    56.51000000
   C     50.15000000    46.95000000    55.03000000
   O     50.62000000    47.76000000    54.21000000
   O     49.79000000    45.81000000    54.65000000
   H     52.71000000    46.31000000    55.96000000
   H     51.06000000    47.33000000    58.26000000
   H     50.16000000    48.37000000    56.50000000
   H     49.03000000    47.17000000    56.88000000
   N     50.38000000    44.80000000    58.70000000
   C     49.98000000    43.44000000    59.00000000
   C     51.15000000    42.48000000    59.12000000
   O     52.04000000    42.67000000    59.95000000
   C     49.22000000    43.37000000    60.33000000
   C     48.74000000    42.04000000    60.84000000
   C     49.54000000    41.16000000    61.59000000
   C     47.48000000    41.60000000    60.40000000
   C     49.12000000    39.87000000    61.94000000
   C     47.11000000    40.30000000    60.75000000
   C     47.88000000    39.39000000    61.49000000
   H     50.04000000    45.52000000    59.32000000
   H     49.29000000    43.09000000    58.24000000
   H     48.40000000    44.07000000    60.19000000
   H     49.93000000    43.71000000    61.08000000
   H     50.55000000    41.46000000    61.83000000
   H     46.86000000    42.20000000    59.75000000
   H     49.69000000    39.25000000    62.61000000
   H     46.16000000    39.93000000    60.38000000
   H     47.47000000    38.43000000    61.77000000
   N     51.16000000    41.38000000    58.37000000
   C     52.22000000    40.39000000    58.40000000
   C     53.47000000    40.84000000    57.65000000
   O     54.46000000    40.13000000    57.77000000
   C     51.60000000    39.10000000    57.88000000
   C     50.22000000    39.45000000    57.35000000
   C     50.03000000    40.95000000    57.57000000
   H     52.51000000    40.27000000    59.44000000
   H     52.22000000    38.57000000    57.15000000
   H     51.42000000    38.43000000    58.73000000
   H     50.18000000    39.25000000    56.28000000
   H     49.45000000    38.87000000    57.85000000
   H     50.06000000    41.52000000    56.64000000
   H     49.08000000    41.14000000    58.06000000
   N     53.49000000    41.89000000    56.83000000
   C     54.57000000    42.16000000    55.90000000
   C     55.84000000    42.57000000    56.63000000
   O     56.88000000    42.61000000    55.97000000
   C     54.07000000    43.19000000    54.88000000
   C     53.13000000    42.48000000    53.91000000
   C     52.69000000    43.46000000    52.84000000
   O     51.55000000    43.97000000    52.84000000
   O     53.43000000    43.89000000    51.93000000
   H     52.64000000    42.43000000    56.79000000
   H     54.76000000    41.25000000    55.33000000
   H     54.91000000    43.58000000    54.31000000
   H     53.59000000    44.11000000    55.20000000
   H     52.26000000    42.06000000    54.42000000
   H     53.73000000    41.68000000    53.47000000
   N     55.89000000    42.76000000    57.95000000
   C     56.94000000    43.26000000    58.82000000
   H     57.78300000    43.59400000    58.21600000
   H     56.55900000    44.09600000    59.40600000
   H     57.26700000    42.46500000    59.49000000
   H     55.04000000    42.46000000    58.41000000
  Ca     50.81000000    46.45000000    52.06000000
   O     49.01000000    44.63000000    51.40000000
   H     49.28000000    43.86000000    50.89000000
   H     48.15000000    44.39000000    51.74000000
   O     53.42000000    46.71000000    52.93000000
   H     53.67000000    45.78000000    52.89000000
   H     54.08000000    47.16000000    52.39000000
   O     51.40000000    48.93000000    51.44000000
   H     50.80000000    49.46000000    50.91000000
   H     52.26000000    49.33000000    51.30000000

Ca 1.00



