%chk=loop2.cluster91.chk
%nprocshared=20
%mem=10GB
%nosave
#b3lyp/svp scf=(tight,noincore,xqc) Test 
#IOP(5/87=12) Density=Current Pop=(MK,readradii) iop(6/33=2) iop(6/42=6)

loop2.cluster91 

   -2  1 
   C     56.28000000    34.15000000    22.79000000
   C     55.91000000    34.06000000    21.32000000
   O     55.36000000    33.07000000    20.84000000
   H     57.11000000    34.84600000    22.91300000
   H     55.42200000    34.50500000    23.36000000
   H     56.57500000    33.16500000    23.15200000
   N     56.19000000    35.14000000    20.59000000
   C     56.05000000    35.29000000    19.16000000
   C     56.44000000    34.10000000    18.29000000
   O     55.94000000    33.86000000    17.19000000
   C     56.87000000    36.55000000    18.89000000
   C     56.84000000    36.97000000    17.42000000
   O     55.81000000    36.99000000    16.73000000
   O     57.90000000    37.22000000    16.81000000
   H     56.40000000    35.97000000    21.13000000
   H     55.02000000    35.56000000    18.94000000
   H     57.94000000    36.42000000    19.03000000
   H     56.47000000    37.40000000    19.44000000
   N     57.48000000    33.42000000    18.76000000
   C     58.01000000    32.33000000    17.95000000
   C     57.23000000    31.09000000    17.56000000
   O     57.60000000    30.38000000    16.62000000
   C     58.77000000    32.97000000    16.79000000
   H     57.99000000    33.65000000    19.60000000
   H     58.75000000    31.89000000    18.62000000
   H     58.05000000    33.25000000    16.02000000
   H     59.25000000    33.90000000    17.09000000
   H     59.49000000    32.21000000    16.48000000
   N     56.09000000    30.83000000    18.21000000
   C     55.10000000    29.83000000    17.86000000
   C     54.71000000    29.89000000    16.39000000
   O     54.41000000    28.88000000    15.75000000
   C     55.48000000    28.40000000    18.21000000
   C     55.89000000    28.36000000    19.68000000
   O     57.07000000    28.13000000    20.03000000
   O     55.04000000    28.65000000    20.55000000
   H     55.95000000    31.49000000    18.96000000
   H     54.24000000    30.11000000    18.47000000
   H     56.42000000    28.20000000    17.69000000
   H     54.69000000    27.66000000    18.08000000
   N     54.71000000    31.11000000    15.85000000
   C     54.41000000    31.45000000    14.48000000
   C     52.94000000    31.38000000    14.07000000
   O     52.30000000    32.42000000    13.92000000
   H     55.04000000    31.88000000    16.41000000
   H     54.93000000    30.79000000    13.79000000
   H     54.70000000    32.50000000    14.39000000
   N     52.39000000    30.17000000    14.08000000
   C     50.99000000    29.80000000    13.96000000
   C     50.05000000    30.48000000    14.93000000
   O     50.29000000    30.53000000    16.14000000
   C     50.86000000    28.28000000    14.02000000
   C     49.43000000    27.75000000    13.98000000
   N     48.70000000    27.56000000    15.08000000
   O     48.86000000    27.42000000    12.94000000
   H     52.97000000    29.38000000    14.34000000
   H     50.61000000    30.14000000    13.00000000
   H     51.33000000    27.97000000    14.95000000
   H     51.39000000    27.80000000    13.20000000
   H     49.08000000    27.64000000    16.01000000
   H     47.70000000    27.53000000    14.99000000
   N     48.91000000    30.97000000    14.44000000
   C     47.86000000    31.58000000    15.23000000
   C     48.31000000    33.00000000    15.54000000
   O     48.36000000    33.86000000    14.67000000
   H     48.75000000    30.84000000    13.45000000
   H     47.74000000    30.95000000    16.11000000
   H     46.97000000    31.64000000    14.60000000
   N     48.79000000    33.12000000    16.79000000
   C     49.78000000    34.12000000    17.13000000
   C     49.60000000    34.38000000    18.62000000
   O     48.99000000    33.58000000    19.34000000
   C     51.18000000    33.55000000    16.92000000
   C     52.42000000    34.40000000    17.18000000
   O     51.34000000    32.42000000    17.75000000
   H     48.65000000    32.28000000    17.33000000
   H     49.55000000    35.02000000    16.57000000
   H     51.30000000    33.32000000    15.87000000
   H     51.02000000    31.71000000    17.18000000
   H     52.45000000    34.74000000    18.21000000
   H     53.31000000    33.82000000    16.94000000
   H     52.31000000    35.26000000    16.52000000
   N     49.97000000    35.58000000    19.07000000
   C     49.79000000    35.91000000    20.47000000
   C     50.49000000    34.91000000    21.37000000
   O     51.66000000    34.65000000    21.07000000
   C     50.33000000    37.32000000    20.72000000
   C     50.47000000    37.50000000    22.22000000
   C     51.59000000    37.79000000    19.99000000
   C     50.37000000    39.00000000    22.50000000
   H     50.51000000    36.20000000    18.49000000
   H     48.74000000    35.92000000    20.76000000
   H     49.50000000    37.91000000    20.33000000
   H     51.39000000    37.12000000    22.68000000
   H     49.63000000    37.06000000    22.76000000
   H     52.37000000    37.04000000    20.08000000
   H     51.31000000    38.09000000    18.98000000
   H     51.99000000    38.67000000    20.49000000
   H     49.97000000    39.14000000    23.50000000
   H     51.30000000    39.56000000    22.42000000
   H     49.66000000    39.59000000    21.92000000
   N     49.80000000    34.27000000    22.32000000
   C     50.28000000    33.06000000    22.95000000
   C     49.43000000    31.83000000    22.65000000
   O     49.22000000    31.02000000    23.55000000
   C     50.70000000    33.28000000    24.40000000
   C     51.68000000    32.28000000    25.00000000
   O     52.50000000    31.65000000    24.31000000
   O     51.78000000    32.14000000    26.24000000
   H     48.84000000    34.49000000    22.51000000
   H     51.21000000    32.79000000    22.46000000
   H     49.87000000    33.46000000    25.09000000
   H     51.32000000    34.17000000    24.46000000
   N     48.86000000    31.69000000    21.45000000
   C     48.38000000    30.47000000    20.82000000
   C     46.90000000    30.18000000    21.02000000
   O     46.59000000    29.06000000    21.41000000
   C     48.83000000    30.32000000    19.37000000
   C     49.54000000    29.07000000    18.90000000
   C     50.94000000    29.02000000    18.88000000
   C     48.83000000    28.02000000    18.30000000
   C     51.67000000    27.90000000    18.48000000
   C     49.55000000    26.89000000    17.89000000
   C     50.94000000    26.80000000    18.00000000
   H     49.07000000    32.49000000    20.89000000
   H     48.83000000    29.67000000    21.40000000
   H     49.55000000    31.12000000    19.20000000
   H     48.06000000    30.53000000    18.62000000
   H     51.54000000    29.77000000    19.38000000
   H     47.76000000    28.01000000    18.20000000
   H     52.73000000    27.94000000    18.67000000
   H     49.07000000    26.00000000    17.51000000
   H     51.50000000    25.96000000    17.63000000
   N     45.97000000    31.08000000    20.70000000
   C     46.07000000    32.52000000    20.81000000
   C     46.11000000    33.09000000    22.22000000
   O     46.56000000    34.21000000    22.46000000
   C     44.85000000    33.09000000    20.09000000
   C     44.18000000    31.87000000    19.47000000
   C     44.58000000    30.76000000    20.43000000
   H     46.91000000    33.02000000    20.33000000
   H     44.17000000    33.63000000    20.74000000
   H     45.14000000    33.82000000    19.33000000
   H     43.09000000    31.89000000    19.46000000
   H     44.60000000    31.69000000    18.48000000
   H     43.98000000    30.86000000    21.33000000
   H     44.40000000    29.77000000    20.01000000
   N     45.55000000    32.37000000    23.20000000
   C     45.26000000    32.81000000    24.55000000
   C     46.42000000    33.48000000    25.27000000
   O     47.36000000    32.71000000    25.46000000
   C     44.55000000    31.68000000    25.29000000
   C     43.32000000    32.12000000    26.08000000
   C     42.49000000    30.89000000    26.42000000
   O     42.58000000    30.33000000    27.53000000
   O     41.72000000    30.56000000    25.49000000
   H     45.23000000    31.45000000    22.94000000
   H     44.48000000    33.56000000    24.41000000
   H     45.33000000    31.24000000    25.91000000
   H     44.25000000    30.93000000    24.56000000
   H     42.70000000    32.79000000    25.49000000
   H     43.54000000    32.54000000    27.06000000
   N     46.31000000    34.76000000    25.64000000
   C     47.35000000    35.51000000    26.30000000
   H     48.20200000    35.61600000    25.62900000
   H     46.97300000    36.49700000    26.56700000
   H     47.66200000    34.98300000    27.20200000
   H     45.46000000    35.26000000    25.45000000
  Ca     54.75000000    28.66000000    23.11000000
   O     54.87000000    30.92000000    24.96000000
   H     55.41000000    31.40000000    24.33000000
   H     53.99000000    31.29000000    24.87000000
   O     57.41000000    28.32000000    22.78000000
   H     57.39000000    28.16000000    21.83000000
   H     58.32000000    28.56000000    22.96000000
   O     56.13000000    30.90000000    22.32000000
   H     55.79000000    31.61000000    21.79000000
   H     57.01000000    30.74000000    21.97000000
   O     55.42000000    25.91000000    22.81000000
   H     55.15000000    25.54000000    21.97000000
   H     56.11000000    25.33000000    23.11000000
   O     55.07000000    27.41000000    25.29000000
   H     54.75000000    27.66000000    26.15000000
   H     55.58000000    26.61000000    25.43000000
   O     52.49000000    30.08000000    22.24000000
   H     52.51000000    30.52000000    21.38000000
   H     52.49000000    30.80000000    22.87000000
   O     52.53000000    29.05000000    25.06000000
   H     52.79000000    28.96000000    25.98000000
   H     52.57000000    30.00000000    24.90000000
   O     52.51000000    26.93000000    22.82000000
   H     52.34000000    26.04000000    22.52000000
   H     51.65000000    27.32000000    22.95000000

Ca 1.00



