%chk=loop1.cluster19.chk
%nprocshared=20
%mem=10GB
%nosave
#b3lyp/svp scf=(tight,noincore,xqc) Test 
#IOP(5/87=12) Density=Current Pop=(MK,readradii) iop(6/33=2) iop(6/42=6)

loop1.cluster19 

   0  1 
   C     57.47000000    39.11000000    29.69000000
   C     58.43000000    38.14000000    29.03000000
   O     58.16000000    36.95000000    29.12000000
   H     56.52800000    38.60300000    29.89900000
   H     57.90200000    39.47200000    30.62300000
   H     57.28800000    39.95200000    29.02300000
   N     59.48000000    38.58000000    28.33000000
   C     60.55000000    37.74000000    27.83000000
   C     61.29000000    37.00000000    28.95000000
   O     62.31000000    37.50000000    29.43000000
   C     61.54000000    38.55000000    27.00000000
   C     62.56000000    37.73000000    26.22000000
   O     63.42000000    38.31000000    25.53000000
   O     62.45000000    36.49000000    26.24000000
   H     59.73000000    39.55000000    28.20000000
   H     60.16000000    36.94000000    27.20000000
   H     62.15000000    39.23000000    27.59000000
   H     60.99000000    39.17000000    26.30000000
   N     60.95000000    35.75000000    29.25000000
   C     61.44000000    35.07000000    30.44000000
   C     62.73000000    34.29000000    30.20000000
   O     63.46000000    34.11000000    31.16000000
   C     60.32000000    34.27000000    31.10000000
   C     59.32000000    35.15000000    31.83000000
   C     58.49000000    34.24000000    32.73000000
   C     57.32000000    35.03000000    33.29000000
   N     56.87000000    34.50000000    34.59000000
   H     60.19000000    35.43000000    28.67000000
   H     61.63000000    35.86000000    31.16000000
   H     60.94000000    33.70000000    31.80000000
   H     59.84000000    33.49000000    30.50000000
   H     58.76000000    35.72000000    31.08000000
   H     59.94000000    35.87000000    32.37000000
   H     59.15000000    33.94000000    33.55000000
   H     58.15000000    33.38000000    32.16000000
   H     56.48000000    35.30000000    32.65000000
   H     57.67000000    36.01000000    33.63000000
   H     55.97000000    34.80000000    34.94000000
   H     56.91000000    33.49000000    34.61000000
   H     57.44000000    34.82000000    35.36000000
   N     63.00000000    33.83000000    28.97000000
   C     64.28000000    33.35000000    28.50000000
   C     65.17000000    34.52000000    28.10000000
   O     66.39000000    34.38000000    28.04000000
   C     64.24000000    32.28000000    27.41000000
   C     63.19000000    32.44000000    26.32000000
   O     62.53000000    31.47000000    25.89000000
   O     63.01000000    33.55000000    25.78000000
   H     62.36000000    34.14000000    28.26000000
   H     64.74000000    32.86000000    29.36000000
   H     64.10000000    31.36000000    27.97000000
   H     65.22000000    32.24000000    26.93000000
   N     64.63000000    35.74000000    27.99000000
   C     65.35000000    36.99000000    27.88000000
   C     66.13000000    37.18000000    26.58000000
   O     67.16000000    37.84000000    26.50000000
   H     63.62000000    35.77000000    27.88000000
   H     66.09000000    37.01000000    28.67000000
   H     64.56000000    37.72000000    28.04000000
   N     65.72000000    36.46000000    25.54000000
   C     66.28000000    36.37000000    24.20000000
   C     66.34000000    37.61000000    23.33000000
   O     67.25000000    37.69000000    22.50000000
   C     65.81000000    35.22000000    23.32000000
   C     64.29000000    35.10000000    23.19000000
   O     63.50000000    36.07000000    23.23000000
   O     63.83000000    33.95000000    23.09000000
   H     64.91000000    35.88000000    25.67000000
   H     67.36000000    36.20000000    24.25000000
   H     66.26000000    34.29000000    23.65000000
   H     66.14000000    35.39000000    22.29000000
   N     65.45000000    38.57000000    23.58000000
   C     65.23000000    39.80000000    22.84000000
   C     63.76000000    39.89000000    22.42000000
   O     63.48000000    40.86000000    21.73000000
   H     64.80000000    38.43000000    24.33000000
   H     65.86000000    39.93000000    21.96000000
   H     65.47000000    40.61000000    23.52000000
   N     62.87000000    38.94000000    22.71000000
   C     61.59000000    38.81000000    22.04000000
   C     60.45000000    38.27000000    22.88000000
   O     60.73000000    37.50000000    23.80000000
   C     61.74000000    38.00000000    20.76000000
   C     62.18000000    38.76000000    19.51000000
   O     62.63000000    36.91000000    20.90000000
   H     63.09000000    38.27000000    23.43000000
   H     61.22000000    39.80000000    21.74000000
   H     60.77000000    37.61000000    20.44000000
   H     62.89000000    36.84000000    21.82000000
   H     63.01000000    39.42000000    19.75000000
   H     62.39000000    38.09000000    18.68000000
   H     61.32000000    39.36000000    19.20000000
   N     59.18000000    38.55000000    22.56000000
   C     57.99000000    38.15000000    23.28000000
   C     57.24000000    37.19000000    22.37000000
   O     56.81000000    37.60000000    21.30000000
   C     57.15000000    39.30000000    23.84000000
   C     57.98000000    40.27000000    24.68000000
   C     55.92000000    38.69000000    24.50000000
   C     57.07000000    41.37000000    25.23000000
   H     59.02000000    39.12000000    21.75000000
   H     58.26000000    37.48000000    24.10000000
   H     56.80000000    39.81000000    22.94000000
   H     58.70000000    40.77000000    24.04000000
   H     58.42000000    39.76000000    25.54000000
   H     56.11000000    37.69000000    24.87000000
   H     55.43000000    39.26000000    25.29000000
   H     55.16000000    38.57000000    23.72000000
   H     56.58000000    41.80000000    24.35000000
   H     56.36000000    41.05000000    26.00000000
   H     57.71000000    42.09000000    25.73000000
   N     57.07000000    35.90000000    22.68000000
   C     56.19000000    34.95000000    22.03000000
   C     54.81000000    34.75000000    22.64000000
   O     54.47000000    35.30000000    23.68000000
   C     56.76000000    33.53000000    22.06000000
   C     57.96000000    33.33000000    21.14000000
   O     57.16000000    33.04000000    23.31000000
   H     57.60000000    35.47000000    23.43000000
   H     56.08000000    35.20000000    20.98000000
   H     56.00000000    32.82000000    21.73000000
   H     57.98000000    33.50000000    23.52000000
   H     58.69000000    34.03000000    21.54000000
   H     58.35000000    32.32000000    21.30000000
   H     57.72000000    33.61000000    20.12000000
   N     53.94000000    33.97000000    21.98000000
   C     52.58000000    33.66000000    22.36000000
   C     52.48000000    33.03000000    23.74000000
   O     51.70000000    33.49000000    24.56000000
   C     51.85000000    32.92000000    21.25000000
   C     51.56000000    33.68000000    19.95000000
   O     52.69000000    31.82000000    20.98000000
   H     54.25000000    33.46000000    21.17000000
   H     52.19000000    34.68000000    22.43000000
   H     50.86000000    32.55000000    21.52000000
   H     52.24000000    31.32000000    20.30000000
   H     51.02000000    34.62000000    20.03000000
   H     52.53000000    34.09000000    19.68000000
   H     51.28000000    33.06000000    19.10000000
   N     53.39000000    32.10000000    24.04000000
   C     53.53000000    31.40000000    25.30000000
   C     53.93000000    32.32000000    26.45000000
   O     53.31000000    32.36000000    27.51000000
   C     54.43000000    30.18000000    25.14000000
   C     53.73000000    29.05000000    24.40000000
   C     54.61000000    27.80000000    24.39000000
   C     53.85000000    26.76000000    23.57000000
   N     54.58000000    25.52000000    23.27000000
   H     53.89000000    31.77000000    23.23000000
   H     52.53000000    31.11000000    25.60000000
   H     54.63000000    29.83000000    26.16000000
   H     55.38000000    30.36000000    24.64000000
   H     53.54000000    29.38000000    23.38000000
   H     52.84000000    28.89000000    25.01000000
   H     54.85000000    27.46000000    25.40000000
   H     55.49000000    27.86000000    23.75000000
   H     53.53000000    27.21000000    22.63000000
   H     52.94000000    26.50000000    24.11000000
   H     53.90000000    24.82000000    22.98000000
   H     55.24000000    25.79000000    22.55000000
   H     55.01000000    25.16000000    24.10000000
   N     54.82000000    33.27000000    26.15000000
   C     55.29000000    34.26000000    27.11000000
   C     54.19000000    35.22000000    27.55000000
   O     54.01000000    35.43000000    28.74000000
   C     56.54000000    34.98000000    26.62000000
   C     57.66000000    33.94000000    26.61000000
   C     58.87000000    34.49000000    25.89000000
   O     58.91000000    34.73000000    24.66000000
   O     59.99000000    34.56000000    26.44000000
   H     55.11000000    33.33000000    25.19000000
   H     55.46000000    33.76000000    28.06000000
   H     56.87000000    35.72000000    27.35000000
   H     56.40000000    35.34000000    25.60000000
   H     57.37000000    32.99000000    26.15000000
   H     57.81000000    33.72000000    27.67000000
   N     53.31000000    35.58000000    26.61000000
   C     52.11000000    36.34000000    26.91000000
   H     51.29700000    35.65500000    27.15000000
   H     52.29700000    36.99400000    27.76200000
   H     51.83400000    36.94100000    26.04400000
   H     53.51000000    35.35000000    25.65000000
  Ca     61.54000000    34.94000000    24.31000000
   O     60.96000000    35.00000000    21.50000000
   H     61.69000000    35.39000000    21.01000000
   H     60.68000000    34.25000000    20.97000000
   O     61.05000000    32.37000000    23.85000000
   H     60.76000000    31.80000000    23.14000000
   H     61.44000000    31.77000000    24.50000000

Ca 1.00



