%chk=loop2.cluster150.chk
%nprocshared=20
%mem=10GB
%nosave
#b3lyp/svp scf=(tight,noincore,xqc) Test 
#IOP(5/87=12) Density=Current Pop=(MK,readradii) iop(6/33=2) iop(6/42=6)

loop2.cluster150 

   -2  1 
   C     59.29000000    31.04000000    10.20000000
   C     59.40000000    31.42000000     8.73000000
   O     58.92000000    30.66000000     7.88000000
   H     58.24100000    31.03000000    10.49500000
   H     59.71900000    30.05000000    10.35300000
   H     59.83000000    31.76800000    10.80500000
   N     60.06000000    32.52000000     8.36000000
   C     60.21000000    32.97000000     6.99000000
   C     61.07000000    32.11000000     6.07000000
   O     60.91000000    32.13000000     4.85000000
   C     60.67000000    34.42000000     7.14000000
   C     60.54000000    35.18000000     5.83000000
   O     61.57000000    35.57000000     5.23000000
   O     59.40000000    35.31000000     5.33000000
   H     60.44000000    33.11000000     9.08000000
   H     59.25000000    32.98000000     6.46000000
   H     61.72000000    34.40000000     7.42000000
   H     60.07000000    34.97000000     7.86000000
   N     61.94000000    31.33000000     6.71000000
   C     62.58000000    30.10000000     6.28000000
   C     61.71000000    29.14000000     5.49000000
   O     62.19000000    28.30000000     4.73000000
   C     63.98000000    30.42000000     5.76000000
   H     62.27000000    31.65000000     7.61000000
   H     62.80000000    29.43000000     7.11000000
   H     64.57000000    30.95000000     6.51000000
   H     64.53000000    29.50000000     5.56000000
   H     64.05000000    30.95000000     4.81000000
   N     60.38000000    29.22000000     5.50000000
   C     59.41000000    28.35000000     4.86000000
   C     59.26000000    28.54000000     3.36000000
   O     58.55000000    27.80000000     2.68000000
   C     59.55000000    26.93000000     5.40000000
   C     58.24000000    26.35000000     5.91000000
   O     58.31000000    25.69000000     6.97000000
   O     57.12000000    26.70000000     5.50000000
   H     60.05000000    29.83000000     6.24000000
   H     58.47000000    28.66000000     5.32000000
   H     60.28000000    26.87000000     6.21000000
   H     59.90000000    26.25000000     4.61000000
   N     60.10000000    29.39000000     2.77000000
   C     60.26000000    29.56000000     1.34000000
   C     59.27000000    30.56000000     0.74000000
   O     58.96000000    31.61000000     1.30000000
   H     60.69000000    29.97000000     3.35000000
   H     60.16000000    28.63000000     0.78000000
   H     61.28000000    29.89000000     1.19000000
   N     58.78000000    30.19000000    -0.44000000
   C     57.97000000    31.08000000    -1.25000000
   C     56.68000000    31.47000000    -0.54000000
   O     56.03000000    30.69000000     0.16000000
   C     57.58000000    30.39000000    -2.56000000
   C     56.93000000    31.38000000    -3.51000000
   N     55.87000000    30.96000000    -4.20000000
   O     57.43000000    32.44000000    -3.87000000
   H     59.11000000    29.31000000    -0.82000000
   H     58.60000000    31.91000000    -1.57000000
   H     56.86000000    29.60000000    -2.38000000
   H     58.44000000    29.91000000    -3.03000000
   H     55.55000000    30.00000000    -4.20000000
   H     55.41000000    31.65000000    -4.78000000
   N     56.11000000    32.66000000    -0.74000000
   C     54.93000000    33.25000000    -0.13000000
   C     55.30000000    33.58000000     1.31000000
   O     56.16000000    34.41000000     1.59000000
   H     56.64000000    33.30000000    -1.31000000
   H     54.17000000    32.47000000    -0.11000000
   H     54.57000000    34.13000000    -0.66000000
   N     54.77000000    32.87000000     2.30000000
   C     55.19000000    33.01000000     3.68000000
   C     54.15000000    32.44000000     4.64000000
   O     53.46000000    31.47000000     4.33000000
   C     56.57000000    32.41000000     3.92000000
   C     57.10000000    31.99000000     5.29000000
   O     56.59000000    31.19000000     3.20000000
   H     54.03000000    32.22000000     2.07000000
   H     55.20000000    34.08000000     3.89000000
   H     57.34000000    33.05000000     3.48000000
   H     57.23000000    31.30000000     2.49000000
   H     57.02000000    32.79000000     6.03000000
   H     56.59000000    31.13000000     5.71000000
   H     58.15000000    31.73000000     5.23000000
   N     54.02000000    33.02000000     5.84000000
   C     53.14000000    32.57000000     6.90000000
   C     53.52000000    31.22000000     7.48000000
   O     54.67000000    30.78000000     7.41000000
   C     52.98000000    33.75000000     7.86000000
   C     51.89000000    33.52000000     8.89000000
   C     54.25000000    34.07000000     8.64000000
   C     51.49000000    34.73000000     9.73000000
   H     54.73000000    33.72000000     5.99000000
   H     52.15000000    32.42000000     6.45000000
   H     52.77000000    34.64000000     7.28000000
   H     52.12000000    32.69000000     9.56000000
   H     50.97000000    33.35000000     8.32000000
   H     54.49000000    33.23000000     9.29000000
   H     55.10000000    34.18000000     7.96000000
   H     54.12000000    35.01000000     9.18000000
   H     52.32000000    35.03000000    10.38000000
   H     51.26000000    35.56000000     9.05000000
   H     50.70000000    34.44000000    10.42000000
   N     52.58000000    30.52000000     8.12000000
   C     52.86000000    29.33000000     8.89000000
   C     51.79000000    28.26000000     9.06000000
   O     52.04000000    27.18000000     9.59000000
   C     53.48000000    29.63000000    10.25000000
   C     54.45000000    28.55000000    10.70000000
   O     54.99000000    27.83000000     9.83000000
   O     54.91000000    28.53000000    11.87000000
   H     51.63000000    30.81000000     7.91000000
   H     53.58000000    28.83000000     8.24000000
   H     52.74000000    29.81000000    11.03000000
   H     54.00000000    30.59000000    10.17000000
   N     50.57000000    28.43000000     8.56000000
   C     49.55000000    27.42000000     8.34000000
   C     48.69000000    27.01000000     9.52000000
   O     48.52000000    25.79000000     9.58000000
   C     48.77000000    27.75000000     7.07000000
   C     47.92000000    26.63000000     6.53000000
   C     48.45000000    25.63000000     5.70000000
   C     46.55000000    26.64000000     6.79000000
   C     47.68000000    24.51000000     5.36000000
   C     45.78000000    25.51000000     6.47000000
   C     46.35000000    24.43000000     5.78000000
   H     50.31000000    29.36000000     8.25000000
   H     50.17000000    26.53000000     8.17000000
   H     49.37000000    28.14000000     6.25000000
   H     48.08000000    28.57000000     7.29000000
   H     49.47000000    25.61000000     5.34000000
   H     46.11000000    27.46000000     7.33000000
   H     48.14000000    23.65000000     4.89000000
   H     44.79000000    25.37000000     6.87000000
   H     45.83000000    23.48000000     5.73000000
   N     48.25000000    27.84000000    10.47000000
   C     48.37000000    29.28000000    10.64000000
   C     49.14000000    29.73000000    11.87000000
   O     49.54000000    30.89000000    11.96000000
   C     46.90000000    29.69000000    10.65000000
   C     46.28000000    28.56000000    11.47000000
   C     47.17000000    27.34000000    11.30000000
   H     48.66000000    29.74000000     9.69000000
   H     46.81000000    30.57000000    11.29000000
   H     46.39000000    29.83000000     9.70000000
   H     46.18000000    28.75000000    12.54000000
   H     45.31000000    28.35000000    11.02000000
   H     47.55000000    27.10000000    12.30000000
   H     46.57000000    26.58000000    10.82000000
   N     49.59000000    28.85000000    12.76000000
   C     50.06000000    29.21000000    14.09000000
   C     51.49000000    29.72000000    14.06000000
   O     52.46000000    28.98000000    13.96000000
   C     49.87000000    28.07000000    15.09000000
   C     48.41000000    27.69000000    15.32000000
   C     47.67000000    28.62000000    16.27000000
   O     47.57000000    28.39000000    17.50000000
   O     47.22000000    29.72000000    15.88000000
   H     49.52000000    27.85000000    12.61000000
   H     49.43000000    30.04000000    14.42000000
   H     50.39000000    28.43000000    15.98000000
   H     50.37000000    27.20000000    14.65000000
   H     48.41000000    26.73000000    15.84000000
   H     47.82000000    27.71000000    14.41000000
   N     51.63000000    31.03000000    14.26000000
   C     52.80000000    31.85000000    14.00000000
   H     53.63000000    31.21200000    13.69600000
   H     52.57700000    32.55900000    13.20300000
   H     53.07200000    32.39300000    14.90500000
   H     50.74000000    31.48000000    14.45000000
  Ca     55.89000000    26.18000000     7.82000000
   O     53.93000000    25.20000000     9.21000000
   H     53.16000000    25.77000000     9.32000000
   H     53.64000000    24.34000000     9.52000000
   O     56.64000000    28.82000000     7.31000000
   H     57.39000000    29.30000000     7.66000000
   H     55.91000000    29.44000000     7.36000000
   O     57.14000000    26.04000000    10.46000000
   H     57.31000000    26.80000000    11.01000000
   H     56.98000000    25.32000000    11.07000000
   O     56.37000000    23.33000000     8.45000000
   H     57.01000000    22.71000000     8.12000000
   H     56.34000000    23.18000000     9.39000000
   O     53.87000000    27.01000000     6.24000000
   H     53.99000000    27.80000000     5.71000000
   H     53.14000000    26.55000000     5.83000000
   O     54.94000000    24.26000000     5.92000000
   H     54.32000000    24.54000000     5.25000000
   H     55.13000000    23.34000000     5.72000000

Ca 1.00



