%chk=loop1.cluster13.chk
%nprocshared=20
%mem=10GB
%nosave
#b3lyp/svp scf=(tight,noincore,xqc) Test 
#IOP(5/87=12) Density=Current Pop=(MK,readradii) iop(6/33=2) iop(6/42=6)

loop1.cluster13 

   0  1 
   C     58.93000000   -21.40000000    31.49000000
   C     59.21000000   -22.89000000    31.43000000
   O     58.99000000   -23.53000000    30.40000000
   H     57.98200000   -21.22900000    32.00000000
   H     59.73100000   -20.90100000    32.03600000
   H     58.87500000   -20.99900000    30.47800000
   N     59.73000000   -23.50000000    32.50000000
   C     60.19000000   -24.87000000    32.50000000
   C     59.42000000   -25.77000000    33.46000000
   O     59.93000000   -26.82000000    33.84000000
   C     61.69000000   -24.78000000    32.76000000
   C     62.11000000   -23.84000000    33.88000000
   O     62.29000000   -24.32000000    35.02000000
   O     62.35000000   -22.63000000    33.67000000
   H     59.60000000   -22.94000000    33.34000000
   H     60.01000000   -25.39000000    31.56000000
   H     62.27000000   -24.62000000    31.84000000
   H     62.02000000   -25.78000000    33.05000000
   N     58.29000000   -25.25000000    33.94000000
   C     57.64000000   -25.66000000    35.17000000
   C     56.17000000   -25.91000000    34.86000000
   O     55.25000000   -25.33000000    35.44000000
   C     57.90000000   -24.56000000    36.19000000
   C     59.31000000   -24.39000000    36.74000000
   C     59.46000000   -23.80000000    38.14000000
   C     60.91000000   -23.52000000    38.54000000
   N     61.65000000   -22.82000000    37.48000000
   H     57.96000000   -24.39000000    33.52000000
   H     58.09000000   -26.56000000    35.57000000
   H     57.28000000   -24.61000000    37.08000000
   H     57.65000000   -23.62000000    35.69000000
   H     59.91000000   -23.86000000    36.00000000
   H     59.73000000   -25.39000000    36.78000000
   H     58.89000000   -24.47000000    38.79000000
   H     58.88000000   -22.88000000    38.09000000
   H     61.34000000   -24.51000000    38.73000000
   H     60.79000000   -22.88000000    39.41000000
   H     62.41000000   -22.26000000    37.87000000
   H     62.07000000   -23.35000000    36.74000000
   H     60.93000000   -22.33000000    36.97000000
   N     55.70000000   -26.93000000    34.13000000
   C     56.36000000   -27.99000000    33.39000000
   C     57.36000000   -28.90000000    34.08000000
   O     57.73000000   -28.79000000    35.25000000
   C     56.75000000   -27.42000000    32.03000000
   C     55.70000000   -27.68000000    30.96000000
   O     56.04000000   -27.40000000    29.80000000
   O     54.56000000   -28.13000000    31.22000000
   H     54.70000000   -26.97000000    34.07000000
   H     55.54000000   -28.70000000    33.26000000
   H     57.65000000   -27.99000000    31.81000000
   H     56.93000000   -26.34000000    32.01000000
   N     57.63000000   -30.07000000    33.48000000
   C     57.07000000   -30.73000000    32.33000000
   C     58.00000000   -31.84000000    31.86000000
   O     58.31000000   -32.76000000    32.62000000
   H     58.34000000   -30.63000000    33.94000000
   H     57.05000000   -29.98000000    31.53000000
   H     56.09000000   -31.20000000    32.45000000
   N     58.48000000   -31.93000000    30.62000000
   C     58.24000000   -30.92000000    29.61000000
   C     59.07000000   -29.66000000    29.81000000
   O     58.78000000   -28.63000000    29.20000000
   C     58.69000000   -31.55000000    28.30000000
   C     60.06000000   -32.20000000    28.39000000
   O     61.09000000   -31.50000000    28.32000000
   O     60.16000000   -33.36000000    28.86000000
   H     59.21000000   -32.63000000    30.55000000
   H     57.19000000   -30.67000000    29.46000000
   H     58.79000000   -30.81000000    27.51000000
   H     57.99000000   -32.36000000    28.10000000
   N     60.09000000   -29.68000000    30.68000000
   C     60.78000000   -28.53000000    31.24000000
   C     61.99000000   -28.04000000    30.47000000
   O     62.76000000   -27.17000000    30.86000000
   H     60.30000000   -30.55000000    31.14000000
   H     61.13000000   -28.69000000    32.26000000
   H     60.07000000   -27.70000000    31.22000000
   N     62.22000000   -28.59000000    29.27000000
   C     63.09000000   -28.11000000    28.22000000
   C     62.77000000   -26.66000000    27.89000000
   O     61.62000000   -26.24000000    27.80000000
   C     62.93000000   -29.02000000    27.00000000
   C     64.20000000   -29.10000000    26.17000000
   O     61.99000000   -28.50000000    26.08000000
   H     61.57000000   -29.32000000    29.00000000
   H     64.13000000   -28.23000000    28.52000000
   H     62.71000000   -30.07000000    27.21000000
   H     62.40000000   -28.82000000    25.27000000
   H     65.00000000   -29.17000000    26.91000000
   H     64.26000000   -30.08000000    25.70000000
   H     64.39000000   -28.21000000    25.57000000
   N     63.78000000   -25.78000000    28.02000000
   C     63.74000000   -24.37000000    27.68000000
   C     64.43000000   -24.03000000    26.37000000
   O     65.39000000   -23.28000000    26.24000000
   C     64.26000000   -23.56000000    28.87000000
   C     63.90000000   -22.08000000    28.81000000
   C     65.73000000   -23.91000000    29.11000000
   C     62.44000000   -21.76000000    29.15000000
   H     64.70000000   -26.15000000    28.21000000
   H     62.69000000   -24.13000000    27.50000000
   H     63.70000000   -23.93000000    29.73000000
   H     64.12000000   -21.52000000    27.91000000
   H     64.53000000   -21.55000000    29.52000000
   H     66.18000000   -23.35000000    29.94000000
   H     65.77000000   -24.99000000    29.29000000
   H     66.32000000   -23.69000000    28.23000000
   H     62.33000000   -20.68000000    29.23000000
   H     61.79000000   -21.95000000    28.30000000
   H     62.18000000   -22.32000000    30.05000000
   N     63.97000000   -24.68000000    25.30000000
   C     64.45000000   -24.47000000    23.95000000
   C     63.48000000   -23.70000000    23.06000000
   O     63.92000000   -23.19000000    22.03000000
   C     64.85000000   -25.83000000    23.38000000
   C     63.79000000   -26.92000000    23.24000000
   O     65.85000000   -26.38000000    24.20000000
   H     63.19000000   -25.31000000    25.44000000
   H     65.41000000   -23.94000000    23.95000000
   H     65.23000000   -25.69000000    22.36000000
   H     66.51000000   -25.69000000    24.30000000
   H     63.40000000   -27.07000000    24.25000000
   H     62.92000000   -26.48000000    22.74000000
   H     64.12000000   -27.83000000    22.75000000
   N     62.19000000   -23.57000000    23.36000000
   C     61.09000000   -23.05000000    22.57000000
   C     60.81000000   -23.89000000    21.33000000
   O     61.62000000   -24.75000000    21.00000000
   C     61.39000000   -21.57000000    22.33000000
   C     61.37000000   -20.79000000    23.64000000
   O     60.35000000   -21.09000000    21.50000000
   H     61.96000000   -24.01000000    24.24000000
   H     60.19000000   -23.15000000    23.16000000
   H     62.31000000   -21.44000000    21.76000000
   H     60.70000000   -20.36000000    20.98000000
   H     61.11000000   -19.74000000    23.47000000
   H     60.66000000   -21.18000000    24.37000000
   H     62.37000000   -20.87000000    24.07000000
   N     59.72000000   -23.66000000    20.59000000
   C     59.38000000   -24.26000000    19.32000000
   C     58.13000000   -25.11000000    19.14000000
   O     58.07000000   -25.76000000    18.10000000
   C     59.74000000   -23.22000000    18.26000000
   C     61.24000000   -23.15000000    17.99000000
   C     61.49000000   -22.22000000    16.81000000
   C     62.95000000   -21.79000000    16.66000000
   N     63.15000000   -21.17000000    15.34000000
   H     59.23000000   -22.83000000    20.88000000
   H     60.08000000   -25.07000000    19.13000000
   H     59.46000000   -22.24000000    18.62000000
   H     59.14000000   -23.41000000    17.36000000
   H     61.74000000   -24.10000000    17.83000000
   H     61.65000000   -22.67000000    18.88000000
   H     60.85000000   -21.34000000    16.85000000
   H     61.19000000   -22.83000000    15.96000000
   H     63.57000000   -22.68000000    16.74000000
   H     63.26000000   -21.04000000    17.39000000
   H     63.41000000   -21.77000000    14.56000000
   H     62.36000000   -20.62000000    15.04000000
   H     63.91000000   -20.51000000    15.43000000
   N     57.17000000   -25.23000000    20.06000000
   C     56.86000000   -24.42000000    21.22000000
   C     56.97000000   -22.90000000    21.13000000
   O     57.57000000   -22.29000000    22.01000000
   C     57.31000000   -25.05000000    22.53000000
   C     56.66000000   -24.53000000    23.81000000
   C     56.90000000   -25.39000000    25.05000000
   O     57.83000000   -25.18000000    25.85000000
   O     56.11000000   -26.35000000    25.16000000
   H     56.40000000   -25.79000000    19.73000000
   H     55.77000000   -24.52000000    21.27000000
   H     58.39000000   -25.00000000    22.57000000
   H     56.93000000   -26.08000000    22.52000000
   H     55.58000000   -24.44000000    23.72000000
   H     56.92000000   -23.50000000    24.05000000
   N     56.31000000   -22.28000000    20.16000000
   C     56.29000000   -20.87000000    19.83000000
   H     55.94900000   -20.30000000    20.69400000
   H     57.29400000   -20.54600000    19.55500000
   H     55.61200000   -20.70200000    18.99300000
   H     55.78000000   -22.87000000    19.52000000
  Ca     57.20000000   -27.04800000    27.56000000
   O     54.18000000   -27.48800000    27.84000000
   H     54.55000000   -27.57800000    28.72000000
   H     53.54000000   -28.19800000    27.77000000
   O     59.17000000   -28.01800000    25.97000000
   H     59.34000000   -27.96800000    25.03000000
   H     60.04000000   -28.02800000    26.37000000
   O     59.24000000   -25.63800000    28.99000000
   H     59.04000000   -24.84800000    29.50000000
   H     60.19000000   -25.62800000    28.91000000
   O     56.46000000   -29.56800000    27.04000000
   H     56.64000000   -29.64800000    26.11000000
   H     55.77000000   -30.20800000    27.22000000
   O     56.50000000   -24.47800000    28.21000000
   H     57.18000000   -24.09800000    27.66000000
   H     55.72000000   -23.94800000    28.03000000

Ca 1.00



