%chk=loop3.cluster57.chk
%nprocshared=20
%mem=10GB
%nosave
#b3lyp/svp scf=(tight,noincore,xqc) Test 
#IOP(5/87=12) Density=Current Pop=(MK,readradii) iop(6/33=2) iop(6/42=6)

loop3.cluster57 

   0  1 
   C     80.62000000    72.12000000    18.98000000
   C     81.24000000    70.74000000    18.83000000
   O     80.62000000    69.72000000    19.13000000
   H     79.65200000    72.03100000    19.47300000
   H     81.27600000    72.75000000    19.58000000
   H     80.48600000    72.56800000    17.99500000
   N     82.49000000    70.65000000    18.37000000
   C     83.29000000    69.44000000    18.24000000
   C     84.09000000    68.97000000    19.45000000
   O     83.99000000    69.59000000    20.50000000
   C     84.28000000    69.68000000    17.11000000
   C     84.97000000    71.04000000    17.12000000
   O     86.09000000    71.03000000    17.67000000
   O     84.33000000    72.02000000    16.68000000
   H     82.95000000    71.50000000    18.09000000
   H     82.58000000    68.64000000    18.03000000
   H     83.76000000    69.73000000    16.15000000
   H     85.10000000    68.96000000    17.06000000
   N     84.82000000    67.87000000    19.24000000
   C     85.62000000    67.23000000    20.26000000
   C     84.94000000    66.67000000    21.50000000
   O     85.49000000    66.86000000    22.58000000
   C     86.50000000    66.22000000    19.52000000
   C     87.30000000    65.26000000    20.39000000
   C     87.96000000    64.21000000    19.50000000
   C     88.61000000    63.13000000    20.37000000
   N     89.62000000    62.46000000    19.54000000
   H     85.03000000    67.55000000    18.31000000
   H     86.33000000    67.99000000    20.58000000
   H     87.11000000    66.73000000    18.78000000
   H     85.81000000    65.60000000    18.95000000
   H     86.60000000    64.80000000    21.09000000
   H     88.00000000    65.85000000    20.98000000
   H     88.76000000    64.71000000    18.96000000
   H     87.18000000    63.83000000    18.85000000
   H     87.81000000    62.43000000    20.65000000
   H     89.08000000    63.53000000    21.26000000
   H     90.24000000    61.93000000    20.13000000
   H     89.28000000    61.89000000    18.78000000
   H     90.23000000    63.14000000    19.10000000
   N     83.76000000    66.06000000    21.35000000
   C     82.84000000    65.68000000    22.41000000
   C     83.25000000    64.36000000    23.03000000
   O     82.44000000    63.44000000    23.10000000
   C     81.38000000    65.64000000    21.94000000
   C     80.95000000    64.71000000    20.82000000
   O     79.76000000    64.34000000    20.71000000
   O     81.74000000    64.43000000    19.89000000
   H     83.49000000    65.89000000    20.40000000
   H     82.88000000    66.45000000    23.19000000
   H     81.10000000    66.68000000    21.74000000
   H     80.86000000    65.31000000    22.84000000
   N     84.46000000    64.31000000    23.59000000
   C     85.08000000    63.13000000    24.15000000
   C     85.70000000    62.31000000    23.03000000
   O     85.46000000    62.54000000    21.85000000
   H     85.05000000    65.12000000    23.45000000
   H     84.36000000    62.46000000    24.63000000
   H     85.95000000    63.42000000    24.75000000
   N     86.47000000    61.24000000    23.27000000
   C     86.72000000    60.69000000    24.59000000
   C     85.79000000    59.54000000    24.97000000
   O     85.48000000    58.73000000    24.10000000
   C     88.14000000    60.13000000    24.59000000
   C     89.35000000    61.01000000    24.33000000
   N     89.96000000    60.95000000    23.14000000
   O     89.81000000    61.82000000    25.13000000
   H     86.89000000    60.79000000    22.47000000
   H     86.61000000    61.46000000    25.35000000
   H     88.09000000    59.28000000    23.92000000
   H     88.41000000    59.79000000    25.59000000
   H     89.82000000    60.16000000    22.52000000
   H     90.73000000    61.56000000    22.89000000
   N     85.22000000    59.45000000    26.17000000
   C     85.90000000    59.92000000    27.36000000
   C     85.23000000    61.16000000    27.91000000
   O     85.37000000    62.27000000    27.40000000
   H     84.36000000    58.93000000    26.27000000
   H     86.97000000    60.11000000    27.25000000
   H     85.93000000    59.16000000    28.15000000
   N     84.34000000    60.92000000    28.88000000
   C     83.25000000    61.85000000    29.03000000
   C     83.37000000    62.35000000    30.46000000
   O     82.74000000    61.81000000    31.37000000
   C     81.94000000    61.12000000    28.72000000
   C     81.94000000    60.54000000    27.33000000
   C     81.51000000    61.34000000    26.26000000
   C     82.33000000    59.22000000    27.08000000
   C     81.25000000    60.79000000    25.00000000
   C     82.19000000    58.68000000    25.80000000
   C     81.58000000    59.44000000    24.78000000
   O     81.55000000    58.80000000    23.57000000
   H     84.36000000    60.05000000    29.39000000
   H     83.34000000    62.82000000    28.53000000
   H     81.07000000    61.75000000    28.91000000
   H     81.84000000    60.33000000    29.47000000
   H     81.25000000    62.38000000    26.35000000
   H     82.71000000    58.56000000    27.85000000
   H     80.85000000    61.37000000    24.18000000
   H     82.50000000    57.65000000    25.67000000
   H     82.01000000    57.96000000    23.53000000
   N     84.21000000    63.36000000    30.73000000
   C     84.71000000    63.78000000    32.02000000
   C     84.66000000    65.25000000    32.41000000
   O     84.87000000    65.65000000    33.56000000
   C     86.17000000    63.35000000    32.14000000
   C     86.32000000    61.85000000    32.41000000
   C     87.05000000    63.80000000    30.98000000
   C     87.74000000    61.46000000    32.79000000
   H     84.65000000    63.72000000    29.89000000
   H     84.16000000    63.29000000    32.82000000
   H     86.54000000    63.85000000    33.03000000
   H     85.86000000    61.33000000    31.57000000
   H     85.66000000    61.67000000    33.26000000
   H     86.77000000    64.71000000    30.44000000
   H     88.09000000    63.77000000    31.30000000
   H     86.99000000    63.00000000    30.24000000
   H     87.68000000    60.38000000    32.91000000
   H     88.49000000    61.77000000    32.05000000
   H     88.01000000    61.87000000    33.76000000
   N     84.30000000    66.14000000    31.48000000
   C     84.17000000    67.55000000    31.79000000
   C     84.87000000    68.45000000    30.79000000
   O     85.04000000    69.65000000    31.01000000
   C     82.71000000    67.92000000    32.05000000
   O     81.98000000    68.05000000    30.84000000
   H     84.20000000    65.91000000    30.50000000
   H     84.71000000    67.73000000    32.71000000
   H     82.66000000    68.92000000    32.49000000
   H     82.23000000    67.29000000    32.79000000
   H     82.31000000    67.37000000    30.25000000
   N     85.43000000    67.92000000    29.70000000
   C     86.04000000    68.65000000    28.60000000
   C     85.07000000    69.44000000    27.74000000
   O     85.14000000    69.37000000    26.51000000
   C     86.89000000    67.67000000    27.80000000
   H     85.19000000    66.98000000    29.44000000
   H     86.73000000    69.34000000    29.09000000
   H     87.58000000    68.26000000    27.19000000
   H     87.53000000    67.09000000    28.46000000
   H     86.29000000    66.95000000    27.25000000
   N     84.06000000    70.10000000    28.30000000
   C     82.97000000    70.69000000    27.55000000
   C     81.97000000    69.78000000    26.84000000
   O     81.12000000    70.23000000    26.08000000
   C     83.45000000    71.83000000    26.66000000
   H     83.98000000    70.10000000    29.31000000
   H     82.48000000    71.14000000    28.41000000
   H     82.63000000    72.19000000    26.04000000
   H     83.92000000    72.63000000    27.23000000
   H     84.22000000    71.45000000    25.99000000
   N     82.17000000    68.47000000    26.91000000
   C     81.46000000    67.47000000    26.14000000
   C     80.12000000    67.12000000    26.77000000
   O     79.18000000    66.82000000    26.03000000
   C     82.39000000    66.30000000    25.84000000
   C     82.73000000    65.29000000    26.93000000
   C     83.41000000    65.74000000    28.22000000
   O     82.86000000    66.58000000    28.97000000
   O     84.52000000    65.25000000    28.49000000
   H     82.72000000    68.20000000    27.71000000
   H     81.21000000    67.87000000    25.15000000
   H     83.33000000    66.68000000    25.42000000
   H     81.96000000    65.60000000    25.13000000
   H     83.37000000    64.51000000    26.53000000
   H     81.84000000    64.73000000    27.24000000
   N     79.91000000    67.25000000    28.08000000
   C     78.67000000    66.92000000    28.74000000
   H     77.88000000    66.81700000    27.99700000
   H     78.78400000    65.98000000    29.28000000
   H     78.40800000    67.71300000    29.44000000
   H     80.76000000    67.31000000    28.63000000
  Ca     79.82000000    63.45000000    18.08000000
   O     81.08000000    65.80000000    17.68000000
   H     81.81000000    65.94000000    17.07000000
   H     81.49000000    65.79000000    18.55000000
   O     79.82000000    61.32000000    16.68000000
   H     79.01000000    61.60000000    16.24000000
   H     80.02000000    60.47000000    16.28000000
   O     82.47000000    63.12000000    17.21000000
   H     82.99000000    62.66000000    16.55000000
   H     83.12000000    63.41000000    17.86000000
   O     77.89000000    61.75000000    19.47000000
   H     77.42000000    61.01000000    19.09000000
   H     77.20000000    62.29000000    19.88000000
   O     81.03000000    61.46000000    19.57000000
   H     80.78000000    60.54000000    19.49000000
   H     81.38000000    61.54000000    20.45000000
   O     77.97000000    65.68000000    18.81000000
   H     77.45000000    65.14000000    19.39000000
   H     77.98000000    66.54000000    19.22000000
   O     80.64000000    64.03000000    15.24000000
   H     81.49000000    63.62000000    15.15000000
   H     80.30000000    64.06000000    14.34000000

Ca 1.00



