%chk=loop1.cluster97.chk
%nprocshared=20
%mem=10GB
%nosave
#b3lyp/svp scf=(tight,noincore,xqc) Test 
#IOP(5/87=12) Density=Current Pop=(MK,readradii) iop(6/33=2) iop(6/42=6)

loop1.cluster97 

   0  1 
   C     39.25000000     0.70000000    38.43000000
   C     38.39000000    -0.55000000    38.49000000
   O     38.30000000    -1.36000000    37.57000000
   H     40.19200000     0.46900000    37.93200000
   H     38.72600000     1.47600000    37.87200000
   H     39.45100000     1.05200000    39.44200000
   N     37.81000000    -0.82000000    39.66000000
   C     37.14000000    -2.07000000    39.96000000
   C     35.66000000    -2.13000000    39.62000000
   O     34.96000000    -3.04000000    40.06000000
   C     37.40000000    -2.42000000    41.43000000
   C     37.04000000    -1.35000000    42.45000000
   O     37.70000000    -0.29000000    42.40000000
   O     36.30000000    -1.53000000    43.43000000
   H     38.04000000    -0.26000000    40.47000000
   H     37.63000000    -2.85000000    39.38000000
   H     38.48000000    -2.59000000    41.44000000
   H     36.93000000    -3.36000000    41.72000000
   N     35.25000000    -1.13000000    38.83000000
   C     33.84000000    -0.85000000    38.63000000
   C     33.43000000    -0.73000000    37.17000000
   O     33.34000000     0.36000000    36.62000000
   C     33.56000000     0.38000000    39.49000000
   C     33.92000000     0.22000000    40.96000000
   C     33.38000000     1.43000000    41.73000000
   C     33.65000000     1.41000000    43.23000000
   N     35.01000000     0.97000000    43.56000000
   H     35.87000000    -0.35000000    38.69000000
   H     33.22000000    -1.63000000    39.07000000
   H     32.48000000     0.54000000    39.49000000
   H     34.05000000     1.27000000    39.11000000
   H     35.01000000     0.26000000    40.98000000
   H     33.46000000    -0.73000000    41.24000000
   H     32.31000000     1.56000000    41.63000000
   H     33.94000000     2.29000000    41.36000000
   H     32.99000000     0.77000000    43.81000000
   H     33.55000000     2.43000000    43.62000000
   H     35.34000000     1.18000000    44.49000000
   H     35.09000000    -0.03000000    43.64000000
   H     35.71000000     1.20000000    42.87000000
   N     33.19000000    -1.82000000    36.44000000
   C     33.31000000    -3.26000000    36.56000000
   C     32.27000000    -3.87000000    37.50000000
   O     31.35000000    -3.22000000    37.98000000
   C     34.79000000    -3.64000000    36.56000000
   C     35.15000000    -4.62000000    35.46000000
   O     34.30000000    -5.23000000    34.77000000
   O     36.39000000    -4.73000000    35.27000000
   H     32.97000000    -1.57000000    35.49000000
   H     32.94000000    -3.59000000    35.59000000
   H     35.07000000    -4.00000000    37.54000000
   H     35.38000000    -2.77000000    36.26000000
   N     32.28000000    -5.15000000    37.89000000
   C     33.01000000    -6.28000000    37.35000000
   C     32.84000000    -7.47000000    38.29000000
   O     31.78000000    -7.56000000    38.90000000
   H     31.57000000    -5.30000000    38.59000000
   H     34.05000000    -6.06000000    37.15000000
   H     32.66000000    -6.59000000    36.36000000
   N     33.84000000    -8.34000000    38.44000000
   C     35.14000000    -8.34000000    37.81000000
   C     36.21000000    -7.46000000    38.43000000
   O     36.98000000    -6.76000000    37.76000000
   C     35.73000000    -9.75000000    37.85000000
   C     35.84000000   -10.31000000    39.26000000
   O     34.88000000   -10.30000000    40.06000000
   O     37.00000000   -10.57000000    39.65000000
   H     33.73000000    -9.10000000    39.09000000
   H     35.05000000    -8.01000000    36.78000000
   H     36.72000000    -9.78000000    37.39000000
   H     35.06000000   -10.46000000    37.35000000
   N     36.14000000    -7.34000000    39.76000000
   C     36.98000000    -6.37000000    40.44000000
   C     38.45000000    -6.74000000    40.51000000
   O     39.30000000    -5.88000000    40.74000000
   H     35.41000000    -7.82000000    40.27000000
   H     36.68000000    -6.26000000    41.49000000
   H     36.94000000    -5.42000000    39.92000000
   N     38.80000000    -7.98000000    40.14000000
   C     40.15000000    -8.40000000    39.84000000
   C     40.85000000    -7.57000000    38.77000000
   O     40.21000000    -7.04000000    37.86000000
   C     40.21000000    -9.87000000    39.44000000
   C     41.54000000   -10.46000000    38.98000000
   O     39.31000000   -10.14000000    38.39000000
   H     38.08000000    -8.64000000    39.93000000
   H     40.76000000    -8.33000000    40.74000000
   H     39.76000000   -10.44000000    40.26000000
   H     38.43000000   -10.22000000    38.75000000
   H     41.53000000   -11.55000000    38.89000000
   H     41.79000000   -10.14000000    37.97000000
   H     42.36000000   -10.21000000    39.65000000
   N     42.16000000    -7.39000000    38.89000000
   C     42.97000000    -6.59000000    37.99000000
   C     44.37000000    -7.15000000    37.79000000
   O     45.17000000    -7.22000000    38.72000000
   C     42.98000000    -5.11000000    38.37000000
   C     44.00000000    -4.34000000    37.54000000
   C     43.29000000    -4.84000000    39.84000000
   C     43.53000000    -2.94000000    37.12000000
   H     42.65000000    -7.78000000    39.69000000
   H     42.41000000    -6.64000000    37.06000000
   H     41.96000000    -4.80000000    38.14000000
   H     44.09000000    -4.89000000    36.60000000
   H     44.99000000    -4.28000000    37.98000000
   H     42.43000000    -5.19000000    40.41000000
   H     44.23000000    -5.26000000    40.19000000
   H     43.19000000    -3.76000000    39.99000000
   H     43.31000000    -2.35000000    38.01000000
   H     44.26000000    -2.43000000    36.51000000
   H     42.66000000    -3.16000000    36.50000000
   N     44.72000000    -7.59000000    36.57000000
   C     46.02000000    -8.03000000    36.12000000
   C     46.29000000    -7.47000000    34.73000000
   O     47.38000000    -7.74000000    34.25000000
   C     46.16000000    -9.55000000    36.20000000
   C     45.27000000   -10.32000000    35.23000000
   O     45.73000000   -10.02000000    37.46000000
   H     43.99000000    -7.71000000    35.89000000
   H     46.81000000    -7.77000000    36.83000000
   H     47.19000000    -9.87000000    36.04000000
   H     46.42000000    -9.65000000    38.01000000
   H     45.76000000   -10.17000000    34.26000000
   H     45.21000000   -11.39000000    35.42000000
   H     44.23000000    -9.98000000    35.23000000
   N     45.38000000    -6.70000000    34.12000000
   C     45.51000000    -6.19000000    32.77000000
   C     45.02000000    -7.20000000    31.74000000
   O     45.15000000    -8.39000000    32.00000000
   C     46.88000000    -5.62000000    32.44000000
   C     47.53000000    -4.65000000    33.42000000
   O     46.84000000    -4.93000000    31.21000000
   H     44.53000000    -6.52000000    34.62000000
   H     44.83000000    -5.35000000    32.63000000
   H     47.55000000    -6.47000000    32.28000000
   H     46.60000000    -4.01000000    31.36000000
   H     47.82000000    -5.21000000    34.31000000
   H     48.38000000    -4.20000000    32.90000000
   H     46.79000000    -3.87000000    33.61000000
   N     44.40000000    -6.78000000    30.63000000
   C     44.25000000    -7.52000000    29.39000000
   C     42.85000000    -7.72000000    28.81000000
   O     42.64000000    -8.71000000    28.11000000
   C     45.33000000    -7.07000000    28.42000000
   C     46.64000000    -7.85000000    28.57000000
   C     47.71000000    -7.37000000    27.60000000
   C     48.91000000    -8.28000000    27.82000000
   N     49.94000000    -8.04000000    26.80000000
   H     44.28000000    -5.79000000    30.50000000
   H     44.56000000    -8.54000000    29.62000000
   H     45.50000000    -6.00000000    28.46000000
   H     44.95000000    -7.33000000    27.43000000
   H     46.52000000    -8.92000000    28.37000000
   H     47.05000000    -7.75000000    29.57000000
   H     48.05000000    -6.36000000    27.83000000
   H     47.35000000    -7.46000000    26.57000000
   H     48.69000000    -9.34000000    27.85000000
   H     49.28000000    -8.09000000    28.83000000
   H     49.70000000    -8.54000000    25.95000000
   H     49.99000000    -7.06000000    26.55000000
   H     50.85000000    -8.38000000    27.09000000
   N     41.83000000    -6.94000000    29.15000000
   C     41.74000000    -5.66000000    29.83000000
   C     42.76000000    -4.64000000    29.35000000
   O     43.53000000    -4.18000000    30.19000000
   C     41.47000000    -5.68000000    31.33000000
   C     40.30000000    -6.62000000    31.64000000
   C     39.73000000    -6.34000000    33.03000000
   O     38.49000000    -6.39000000    33.18000000
   O     40.43000000    -6.03000000    34.01000000
   H     40.91000000    -7.29000000    28.91000000
   H     40.81000000    -5.26000000    29.43000000
   H     41.20000000    -4.71000000    31.75000000
   H     42.32000000    -6.04000000    31.90000000
   H     40.69000000    -7.63000000    31.53000000
   H     39.52000000    -6.49000000    30.90000000
   N     42.99000000    -4.44000000    28.05000000
   C     43.91000000    -3.46000000    27.50000000
   H     44.84900000    -3.94900000    27.24100000
   H     43.47500000    -3.01400000    26.60600000
   H     44.09900000    -2.68200000    28.24000000
   H     42.44000000    -5.04000000    27.44000000
  Ca     38.65000000    -5.80200000    35.90000000
   O     38.92000000    -8.48200000    35.69000000
   H     38.83000000    -9.12200000    34.98000000
   H     39.13000000    -9.00200000    36.46000000
   O     39.35000000    -4.43200000    38.18000000
   H     39.90000000    -3.68200000    38.39000000
   H     39.38000000    -4.98200000    38.97000000
   O     38.99000000    -3.10200000    35.47000000
   H     39.16000000    -2.76200000    34.60000000
   H     38.72000000    -2.34200000    35.98000000

Ca 1.00



