%chk=loop3.cluster131.chk
%nprocshared=20
%mem=10GB
%nosave
#b3lyp/svp scf=(tight,noincore,xqc) Test 
#IOP(5/87=12) Density=Current Pop=(MK,readradii) iop(6/33=2) iop(6/42=6)

loop3.cluster131 

   0  1 
   C     40.76000000    81.12000000    73.77000000
   C     40.72000000    81.64000000    72.34000000
   O     41.71000000    82.20000000    71.86000000
   H     40.76300000    81.96200000    74.46200000
   H     39.88300000    80.50100000    73.95700000
   H     41.66200000    80.52600000    73.91600000
   N     39.62000000    81.37000000    71.63000000
   C     39.39000000    81.84000000    70.28000000
   C     39.27000000    80.67000000    69.31000000
   O     38.87000000    79.59000000    69.74000000
   C     38.19000000    82.78000000    70.34000000
   C     38.08000000    83.69000000    69.13000000
   O     38.95000000    83.65000000    68.23000000
   O     37.10000000    84.46000000    69.15000000
   H     38.86000000    80.83000000    72.03000000
   H     40.25000000    82.47000000    70.03000000
   H     38.21000000    83.38000000    71.25000000
   H     37.36000000    82.09000000    70.28000000
   N     39.56000000    80.87000000    68.02000000
   C     39.39000000    79.92000000    66.93000000
   C     37.92000000    79.62000000    66.66000000
   O     37.04000000    80.12000000    67.36000000
   C     40.23000000    78.66000000    67.04000000
   C     41.72000000    78.90000000    67.22000000
   C     42.31000000    79.64000000    66.02000000
   C     43.81000000    79.81000000    66.25000000
   N     44.17000000    80.81000000    67.27000000
   H     39.73000000    81.79000000    67.66000000
   H     39.82000000    80.39000000    66.05000000
   H     40.17000000    78.14000000    66.08000000
   H     39.81000000    78.02000000    67.81000000
   H     42.31000000    77.98000000    67.30000000
   H     41.99000000    79.39000000    68.16000000
   H     42.01000000    80.68000000    65.95000000
   H     42.06000000    79.07000000    65.12000000
   H     44.22000000    80.01000000    65.27000000
   H     44.16000000    78.82000000    66.55000000
   H     43.53000000    80.88000000    68.05000000
   H     45.09000000    80.80000000    67.70000000
   H     44.11000000    81.71000000    66.82000000
   N     37.64000000    78.86000000    65.60000000
   C     36.27000000    78.75000000    65.14000000
   C     35.16000000    78.07000000    65.92000000
   O     34.01000000    78.40000000    65.65000000
   C     36.24000000    78.23000000    63.70000000
   C     36.89000000    76.92000000    63.30000000
   O     36.78000000    75.97000000    64.11000000
   O     37.42000000    76.86000000    62.17000000
   H     38.38000000    78.66000000    64.94000000
   H     35.90000000    79.77000000    65.08000000
   H     36.56000000    79.00000000    62.99000000
   H     35.20000000    78.11000000    63.38000000
   N     35.60000000    77.07000000    66.69000000
   C     34.71000000    76.04000000    67.20000000
   C     33.72000000    75.44000000    66.22000000
   O     32.56000000    75.34000000    66.61000000
   H     36.57000000    76.84000000    66.83000000
   H     34.14000000    76.58000000    67.96000000
   H     35.23000000    75.27000000    67.77000000
   N     34.08000000    75.25000000    64.95000000
   C     33.01000000    75.28000000    63.97000000
   C     32.04000000    74.10000000    64.04000000
   O     32.39000000    72.93000000    63.92000000
   C     33.60000000    75.37000000    62.57000000
   C     32.60000000    75.06000000    61.46000000
   N     31.48000000    75.78000000    61.49000000
   O     32.80000000    74.15000000    60.67000000
   H     35.07000000    75.35000000    64.79000000
   H     32.45000000    76.18000000    64.19000000
   H     34.46000000    74.70000000    62.48000000
   H     33.90000000    76.41000000    62.46000000
   H     31.24000000    76.40000000    62.26000000
   H     30.75000000    75.64000000    60.81000000
   N     30.77000000    74.47000000    64.25000000
   C     29.72000000    73.49000000    64.45000000
   C     29.91000000    72.52000000    65.61000000
   O     30.44000000    72.89000000    66.66000000
   H     30.52000000    75.45000000    64.29000000
   H     29.53000000    72.99000000    63.50000000
   H     28.81000000    74.09000000    64.53000000
   N     29.64000000    71.26000000    65.29000000
   C     29.94000000    70.08000000    66.08000000
   C     31.40000000    69.68000000    66.24000000
   O     31.71000000    68.74000000    66.97000000
   C     29.19000000    70.11000000    67.40000000
   C     27.73000000    70.50000000    67.44000000
   C     27.20000000    71.42000000    68.35000000
   C     26.84000000    69.89000000    66.54000000
   C     25.84000000    71.74000000    68.41000000
   C     25.47000000    70.16000000    66.58000000
   C     24.97000000    71.11000000    67.49000000
   O     23.65000000    71.46000000    67.46000000
   H     29.25000000    71.07000000    64.38000000
   H     29.42000000    69.27000000    65.57000000
   H     29.81000000    70.75000000    68.03000000
   H     29.17000000    69.13000000    67.87000000
   H     27.94000000    71.89000000    68.98000000
   H     27.18000000    69.10000000    65.89000000
   H     25.46000000    72.40000000    69.18000000
   H     24.86000000    69.57000000    65.91000000
   H     23.33000000    70.76000000    66.88000000
   N     32.34000000    70.48000000    65.73000000
   C     33.79000000    70.49000000    65.85000000
   C     34.53000000    69.34000000    65.19000000
   O     35.64000000    69.46000000    64.67000000
   C     34.21000000    70.80000000    67.28000000
   C     34.05000000    72.29000000    67.57000000
   C     35.63000000    70.39000000    67.65000000
   C     33.60000000    72.57000000    69.00000000
   H     31.91000000    71.29000000    65.32000000
   H     34.15000000    71.27000000    65.17000000
   H     33.53000000    70.20000000    67.88000000
   H     33.28000000    72.75000000    66.95000000
   H     35.00000000    72.82000000    67.44000000
   H     35.88000000    69.36000000    67.40000000
   H     36.31000000    71.03000000    67.09000000
   H     35.70000000    70.49000000    68.74000000
   H     34.11000000    71.93000000    69.72000000
   H     33.84000000    73.60000000    69.25000000
   H     32.53000000    72.41000000    69.10000000
   N     33.84000000    68.22000000    64.97000000
   C     34.12000000    67.05000000    64.16000000
   C     35.44000000    66.36000000    64.47000000
   O     35.89000000    65.54000000    63.67000000
   C     33.06000000    65.96000000    64.29000000
   O     31.76000000    66.51000000    64.29000000
   H     32.90000000    68.19000000    65.34000000
   H     34.12000000    67.45000000    63.14000000
   H     33.20000000    65.32000000    65.16000000
   H     33.18000000    65.35000000    63.40000000
   H     31.60000000    66.94000000    63.45000000
   N     35.88000000    66.49000000    65.73000000
   C     37.26000000    66.23000000    66.10000000
   C     38.35000000    66.95000000    65.33000000
   O     39.45000000    66.39000000    65.28000000
   C     37.44000000    64.73000000    66.29000000
   H     35.32000000    66.97000000    66.41000000
   H     37.36000000    66.61000000    67.11000000
   H     36.52000000    64.24000000    66.63000000
   H     37.71000000    64.14000000    65.41000000
   H     38.32000000    64.60000000    66.91000000
   N     38.06000000    68.07000000    64.65000000
   C     39.01000000    68.78000000    63.83000000
   C     39.59000000    69.96000000    64.60000000
   O     38.97000000    70.54000000    65.49000000
   C     38.32000000    69.19000000    62.53000000
   H     37.10000000    68.37000000    64.68000000
   H     39.91000000    68.20000000    63.60000000
   H     37.37000000    69.66000000    62.77000000
   H     38.89000000    69.86000000    61.89000000
   H     38.07000000    68.26000000    62.01000000
   N     40.81000000    70.28000000    64.17000000
   C     41.51000000    71.48000000    64.58000000
   C     41.76000000    71.66000000    66.07000000
   O     42.00000000    72.78000000    66.51000000
   C     40.91000000    72.72000000    63.92000000
   C     40.77000000    72.51000000    62.41000000
   C     40.39000000    73.80000000    61.70000000
   O     41.24000000    74.53000000    61.16000000
   O     39.17000000    74.08000000    61.64000000
   H     41.23000000    69.77000000    63.40000000
   H     42.48000000    71.21000000    64.16000000
   H     41.62000000    73.55000000    63.91000000
   H     39.91000000    72.98000000    64.28000000
   H     40.06000000    71.77000000    62.05000000
   H     41.78000000    72.34000000    62.05000000
   N     41.86000000    70.57000000    66.82000000
   C     42.36000000    70.47000000    68.18000000
   H     43.23800000    71.10600000    68.29100000
   H     41.58700000    70.79400000    68.87700000
   H     42.63200000    69.43600000    68.39300000
   H     41.61000000    69.67000000    66.42000000
  Ca     39.20000000    76.39000000    60.36000000
   O     38.02000000    74.35000000    58.85000000
   H     37.34000000    74.23000000    58.19000000
   H     38.11000000    73.48000000    59.26000000
   O     40.43000000    76.91000000    62.73000000
   H     40.17000000    77.80000000    62.98000000
   H     40.35000000    76.40000000    63.53000000
   O     39.65000000    79.15000000    59.69000000
   H     38.87000000    79.66000000    59.91000000
   H     40.15000000    79.73000000    59.11000000
   O     39.38000000    77.13000000    57.34000000
   H     39.87000000    76.63000000    56.69000000
   H     39.13000000    77.93000000    56.88000000
   O     36.64000000    76.93000000    59.48000000
   H     36.39000000    76.18000000    58.95000000
   H     35.85000000    77.48000000    59.50000000

Ca 1.00



