%chk=loop2.cluster61.chk
%nprocshared=20
%mem=10GB
%nosave
#b3lyp/svp scf=(tight,noincore,xqc) Test 
#IOP(5/87=12) Density=Current Pop=(MK,readradii) iop(6/33=2) iop(6/42=6)

loop2.cluster61 

   -2  1 
   C     57.35000000    48.30000000    18.16000000
   C     58.47000000    48.28000000    17.13000000
   O     59.24000000    49.24000000    17.04000000
   H     56.44800000    47.87000000    17.72400000
   H     57.64600000    47.71600000    19.03100000
   H     57.15200000    49.32800000    18.46200000
   N     58.66000000    47.19000000    16.39000000
   C     59.66000000    46.80000000    15.42000000
   C     59.70000000    47.62000000    14.13000000
   O     59.15000000    47.18000000    13.13000000
   C     59.38000000    45.33000000    15.15000000
   C     60.60000000    44.67000000    14.51000000
   O     61.74000000    45.15000000    14.65000000
   O     60.43000000    43.76000000    13.67000000
   H     57.95000000    46.50000000    16.57000000
   H     60.63000000    46.92000000    15.90000000
   H     58.45000000    45.17000000    14.60000000
   H     59.37000000    44.87000000    16.14000000
   N     60.18000000    48.87000000    14.13000000
   C     60.21000000    49.83000000    13.05000000
   C     61.12000000    49.38000000    11.92000000
   O     60.68000000    49.50000000    10.78000000
   C     60.56000000    51.21000000    13.58000000
   H     60.66000000    49.21000000    14.95000000
   H     59.20000000    49.93000000    12.64000000
   H     61.53000000    51.20000000    14.09000000
   H     60.70000000    51.94000000    12.79000000
   H     59.72000000    51.49000000    14.21000000
   N     62.31000000    48.87000000    12.25000000
   C     63.19000000    48.28000000    11.26000000
   C     62.67000000    46.96000000    10.72000000
   O     63.06000000    46.62000000     9.60000000
   C     64.63000000    48.17000000    11.73000000
   C     64.91000000    47.76000000    13.17000000
   O     64.13000000    47.01000000    13.79000000
   O     65.81000000    48.39000000    13.77000000
   H     62.53000000    48.85000000    13.24000000
   H     63.13000000    48.85000000    10.33000000
   H     65.09000000    49.15000000    11.57000000
   H     65.15000000    47.46000000    11.08000000
   N     61.77000000    46.26000000    11.42000000
   C     61.17000000    45.04000000    10.93000000
   C     62.20000000    43.93000000    10.82000000
   O     62.38000000    43.42000000     9.71000000
   H     61.46000000    46.63000000    12.31000000
   H     60.68000000    45.10000000     9.96000000
   H     60.32000000    44.81000000    11.58000000
   N     62.93000000    43.63000000    11.90000000
   C     63.90000000    42.61000000    12.24000000
   C     63.56000000    41.71000000    13.43000000
   O     64.20000000    40.69000000    13.62000000
   C     65.25000000    43.28000000    12.47000000
   C     65.44000000    44.16000000    13.70000000
   N     66.43000000    45.05000000    13.60000000
   O     64.84000000    43.95000000    14.75000000
   H     62.62000000    44.18000000    12.69000000
   H     63.95000000    42.02000000    11.33000000
   H     65.32000000    43.89000000    11.57000000
   H     66.03000000    42.52000000    12.41000000
   H     66.98000000    45.32000000    12.80000000
   H     66.58000000    45.54000000    14.47000000
   N     62.52000000    42.01000000    14.21000000
   C     61.95000000    41.09000000    15.17000000
   C     62.70000000    41.00000000    16.49000000
   O     62.37000000    40.07000000    17.23000000
   H     61.97000000    42.80000000    13.91000000
   H     62.15000000    40.09000000    14.80000000
   H     60.90000000    41.27000000    15.40000000
   N     63.60000000    41.93000000    16.81000000
   C     64.13000000    42.07000000    18.15000000
   C     64.28000000    43.53000000    18.55000000
   O     64.71000000    44.40000000    17.79000000
   C     65.47000000    41.36000000    18.25000000
   C     65.34000000    39.84000000    18.38000000
   O     66.38000000    41.70000000    17.24000000
   H     63.90000000    42.56000000    16.08000000
   H     63.55000000    41.53000000    18.91000000
   H     65.97000000    41.75000000    19.14000000
   H     66.39000000    40.99000000    16.59000000
   H     64.80000000    39.46000000    17.51000000
   H     66.36000000    39.45000000    18.43000000
   H     64.79000000    39.62000000    19.30000000
   N     63.92000000    43.86000000    19.79000000
   C     63.98000000    45.21000000    20.31000000
   C     65.48000000    45.45000000    20.44000000
   O     66.21000000    44.68000000    21.05000000
   C     63.15000000    45.36000000    21.59000000
   C     61.68000000    44.99000000    21.42000000
   C     63.36000000    46.76000000    22.14000000
   C     60.75000000    45.36000000    22.56000000
   H     63.68000000    43.12000000    20.44000000
   H     63.54000000    45.89000000    19.59000000
   H     63.53000000    44.69000000    22.36000000
   H     61.60000000    43.94000000    21.13000000
   H     61.32000000    45.55000000    20.56000000
   H     64.38000000    46.94000000    22.51000000
   H     63.09000000    47.53000000    21.42000000
   H     62.78000000    46.83000000    23.06000000
   H     60.71000000    46.45000000    22.68000000
   H     59.73000000    44.98000000    22.49000000
   H     61.16000000    44.86000000    23.44000000
   N     65.91000000    46.55000000    19.81000000
   C     67.21000000    47.17000000    19.63000000
   C     67.26000000    48.56000000    20.25000000
   O     66.25000000    49.26000000    20.27000000
   C     67.66000000    47.13000000    18.17000000
   C     66.54000000    46.94000000    17.16000000
   O     65.46000000    47.57000000    17.27000000
   O     66.59000000    46.07000000    16.26000000
   H     65.17000000    47.09000000    19.39000000
   H     67.95000000    46.58000000    20.17000000
   H     68.29000000    46.25000000    18.11000000
   H     68.22000000    48.01000000    17.86000000
   N     68.48000000    48.98000000    20.59000000
   C     68.67000000    50.17000000    21.39000000
   C     67.99000000    51.44000000    20.88000000
   O     67.19000000    51.96000000    21.65000000
   C     70.08000000    50.36000000    21.93000000
   C     70.33000000    51.45000000    22.95000000
   C     70.96000000    52.63000000    22.54000000
   C     69.95000000    51.32000000    24.30000000
   C     71.12000000    53.68000000    23.45000000
   C     70.07000000    52.41000000    25.17000000
   C     70.66000000    53.61000000    24.77000000
   H     69.22000000    48.30000000    20.51000000
   H     68.14000000    49.88000000    22.30000000
   H     70.75000000    50.50000000    21.08000000
   H     70.25000000    49.39000000    22.40000000
   H     71.21000000    52.72000000    21.49000000
   H     69.26000000    50.51000000    24.49000000
   H     71.44000000    54.62000000    23.02000000
   H     69.49000000    52.37000000    26.08000000
   H     70.68000000    54.46000000    25.44000000
   N     68.27000000    51.83000000    19.63000000
   C     67.55000000    52.96000000    19.08000000
   C     66.04000000    52.86000000    19.04000000
   O     65.40000000    53.87000000    18.76000000
   C     68.13000000    53.07000000    17.67000000
   C     69.50000000    52.42000000    17.69000000
   C     69.31000000    51.34000000    18.75000000
   H     67.86000000    53.84000000    19.66000000
   H     67.47000000    52.42000000    17.11000000
   H     67.97000000    54.09000000    17.30000000
   H     69.80000000    51.99000000    16.73000000
   H     70.28000000    53.11000000    18.02000000
   H     69.00000000    50.36000000    18.40000000
   H     70.29000000    51.29000000    19.24000000
   N     65.47000000    51.65000000    19.10000000
   C     64.04000000    51.43000000    19.11000000
   C     63.54000000    51.54000000    20.54000000
   O     62.49000000    52.13000000    20.81000000
   C     63.73000000    50.06000000    18.50000000
   C     62.37000000    49.94000000    17.82000000
   C     62.28000000    48.61000000    17.08000000
   O     62.52000000    48.67000000    15.85000000
   O     62.24000000    47.48000000    17.60000000
   H     66.04000000    50.85000000    19.34000000
   H     63.58000000    52.17000000    18.46000000
   H     63.82000000    49.20000000    19.16000000
   H     64.43000000    49.88000000    17.68000000
   H     62.21000000    50.83000000    17.21000000
   H     61.56000000    49.90000000    18.55000000
   N     64.21000000    50.90000000    21.50000000
   C     63.90000000    51.02000000    22.91000000
   H     62.86000000    50.74100000    23.07800000
   H     64.55000000    50.35800000    23.48300000
   H     64.05600000    52.05000000    23.23000000
   H     64.98000000    50.28000000    21.29000000
  Ca     63.82000000    46.10000000    16.02000000
   O     61.60000000    45.10000000    17.49000000
   H     61.44000000    45.99000000    17.82000000
   H     60.78000000    44.64000000    17.63000000

Ca 1.00



