%chk=loop3.cluster176.chk
%nprocshared=20
%mem=10GB
%nosave
#b3lyp/svp scf=(tight,noincore,xqc) Test 
#IOP(5/87=12) Density=Current Pop=(MK,readradii) iop(6/33=2) iop(6/42=6)

loop3.cluster176 

   0  1 
   C     38.77000000   105.81000000    10.61000000
   C     37.68000000   106.58000000     9.87000000
   O     36.51000000   106.20000000     9.89000000
   H     39.62700000   106.46300000    10.77400000
   H     38.38500000   105.46800000    11.57100000
   H     39.07700000   104.95100000    10.01400000
   N     38.10000000   107.61000000     9.13000000
   C     37.20000000   108.41000000     8.31000000
   C     36.23000000   109.23000000     9.15000000
   O     36.64000000   109.71000000    10.20000000
   C     37.89000000   109.26000000     7.25000000
   C     39.00000000   108.56000000     6.48000000
   O     39.10000000   107.31000000     6.44000000
   O     39.86000000   109.30000000     5.96000000
   H     39.07000000   107.87000000     9.07000000
   H     36.62000000   107.71000000     7.70000000
   H     38.36000000   110.17000000     7.64000000
   H     37.05000000   109.54000000     6.62000000
   N     35.00000000   109.44000000     8.67000000
   C     33.79000000   109.98000000     9.25000000
   C     33.90000000   111.43000000     9.71000000
   O     32.89000000   112.11000000     9.82000000
   C     33.36000000   109.14000000    10.45000000
   C     32.72000000   107.89000000     9.88000000
   C     32.15000000   107.10000000    11.06000000
   C     31.28000000   105.97000000    10.51000000
   N     30.92000000   104.95000000    11.51000000
   H     34.90000000   109.01000000     7.76000000
   H     32.98000000   110.04000000     8.53000000
   H     32.55000000   109.60000000    11.02000000
   H     34.17000000   108.98000000    11.17000000
   H     33.45000000   107.26000000     9.37000000
   H     31.93000000   108.23000000     9.21000000
   H     31.55000000   107.81000000    11.63000000
   H     32.94000000   106.69000000    11.69000000
   H     31.80000000   105.56000000     9.64000000
   H     30.36000000   106.44000000    10.18000000
   H     30.40000000   104.22000000    11.05000000
   H     31.72000000   104.54000000    11.97000000
   H     30.27000000   105.38000000    12.15000000
   N     35.07000000   111.99000000    10.01000000
   C     35.29000000   113.21000000    10.77000000
   C     36.52000000   114.03000000    10.41000000
   O     37.63000000   113.86000000    10.92000000
   C     35.25000000   112.86000000    12.25000000
   C     35.24000000   114.00000000    13.25000000
   O     34.97000000   115.17000000    12.88000000
   O     35.52000000   113.83000000    14.46000000
   H     35.82000000   111.31000000    10.00000000
   H     34.41000000   113.82000000    10.59000000
   H     36.03000000   112.12000000    12.43000000
   H     34.28000000   112.37000000    12.37000000
   N     36.29000000   114.90000000     9.43000000
   C     37.23000000   115.96000000     9.12000000
   C     37.25000000   117.06000000    10.18000000
   O     36.22000000   117.56000000    10.62000000
   H     35.35000000   114.86000000     9.07000000
   H     37.06000000   116.50000000     8.19000000
   H     38.24000000   115.58000000     9.00000000
   N     38.43000000   117.39000000    10.70000000
   C     38.60000000   118.19000000    11.90000000
   C     39.51000000   119.39000000    11.64000000
   O     39.89000000   120.00000000    12.63000000
   C     39.29000000   117.32000000    12.95000000
   C     38.39000000   116.34000000    13.69000000
   N     38.54000000   115.02000000    13.55000000
   O     37.45000000   116.65000000    14.42000000
   H     39.20000000   116.83000000    10.35000000
   H     37.63000000   118.53000000    12.25000000
   H     39.60000000   117.93000000    13.79000000
   H     40.16000000   116.81000000    12.54000000
   H     39.08000000   114.70000000    12.75000000
   H     37.84000000   114.48000000    14.04000000
   N     39.91000000   119.62000000    10.39000000
   C     40.56000000   120.84000000     9.95000000
   C     41.87000000   121.18000000    10.63000000
   O     42.75000000   120.32000000    10.67000000
   H     39.60000000   118.92000000     9.72000000
   H     39.84000000   121.62000000    10.21000000
   H     40.69000000   120.89000000     8.87000000
   N     41.95000000   122.34000000    11.28000000
   C     43.07000000   122.75000000    12.10000000
   C     43.54000000   121.76000000    13.15000000
   O     44.69000000   121.73000000    13.59000000
   C     44.32000000   123.12000000    11.29000000
   C     44.08000000   123.92000000    10.03000000
   C     44.59000000   123.34000000     8.86000000
   C     43.57000000   125.22000000     9.97000000
   C     44.43000000   123.96000000     7.61000000
   C     43.40000000   125.86000000     8.74000000
   C     43.79000000   125.21000000     7.55000000
   O     43.73000000   125.91000000     6.38000000
   H     41.21000000   123.03000000    11.17000000
   H     42.79000000   123.68000000    12.60000000
   H     44.84000000   122.19000000    11.10000000
   H     44.92000000   123.78000000    11.91000000
   H     45.07000000   122.37000000     8.82000000
   H     43.19000000   125.61000000    10.90000000
   H     44.86000000   123.49000000     6.74000000
   H     43.16000000   126.91000000     8.65000000
   H     43.35000000   126.76000000     6.61000000
   N     42.62000000   120.91000000    13.62000000
   C     42.63000000   120.04000000    14.78000000
   C     42.84000000   120.79000000    16.09000000
   O     42.03000000   120.59000000    16.99000000
   C     43.54000000   118.83000000    14.56000000
   C     42.88000000   117.89000000    13.56000000
   C     43.82000000   118.02000000    15.82000000
   C     43.84000000   117.04000000    12.72000000
   H     41.79000000   120.77000000    13.06000000
   H     41.65000000   119.57000000    14.84000000
   H     44.55000000   119.15000000    14.31000000
   H     42.32000000   118.41000000    12.79000000
   H     42.13000000   117.29000000    14.08000000
   H     42.93000000   117.84000000    16.42000000
   H     44.52000000   117.20000000    15.70000000
   H     44.28000000   118.64000000    16.60000000
   H     44.58000000   117.75000000    12.36000000
   H     44.31000000   116.20000000    13.22000000
   H     43.29000000   116.63000000    11.87000000
   N     43.66000000   121.84000000    16.14000000
   C     43.91000000   122.78000000    17.21000000
   C     43.80000000   122.16000000    18.60000000
   O     42.98000000   122.66000000    19.37000000
   C     45.30000000   123.40000000    17.15000000
   O     45.28000000   124.38000000    16.13000000
   H     44.36000000   121.98000000    15.43000000
   H     43.20000000   123.60000000    17.20000000
   H     46.05000000   122.67000000    16.84000000
   H     45.49000000   123.85000000    18.13000000
   H     46.18000000   124.63000000    15.92000000
   N     44.53000000   121.08000000    18.88000000
   C     44.67000000   120.36000000    20.13000000
   C     43.40000000   119.96000000    20.87000000
   O     43.29000000   119.98000000    22.09000000
   C     45.73000000   120.96000000    21.04000000
   H     45.17000000   120.83000000    18.14000000
   H     45.13000000   119.41000000    19.86000000
   H     46.69000000   120.99000000    20.54000000
   H     45.41000000   121.97000000    21.31000000
   H     45.81000000   120.34000000    21.93000000
   N     42.39000000   119.59000000    20.07000000
   C     41.00000000   119.46000000    20.47000000
   C     40.56000000   118.04000000    20.18000000
   O     41.12000000   117.38000000    19.31000000
   C     40.18000000   120.53000000    19.75000000
   H     42.60000000   119.51000000    19.09000000
   H     40.89000000   119.65000000    21.54000000
   H     40.53000000   121.54000000    19.95000000
   H     40.37000000   120.35000000    18.70000000
   H     39.15000000   120.49000000    20.11000000
   N     39.58000000   117.47000000    20.88000000
   C     39.01000000   116.14000000    20.94000000
   C     39.82000000   114.92000000    21.38000000
   O     39.58000000   113.76000000    21.06000000
   C     38.20000000   115.90000000    19.67000000
   C     37.20000000   116.97000000    19.21000000
   C     36.53000000   116.73000000    17.87000000
   O     36.06000000   115.66000000    17.41000000
   O     36.38000000   117.72000000    17.12000000
   H     39.16000000   118.14000000    21.52000000
   H     38.26000000   116.23000000    21.72000000
   H     37.68000000   114.94000000    19.72000000
   H     38.95000000   115.84000000    18.88000000
   H     37.65000000   117.96000000    19.26000000
   H     36.41000000   116.95000000    19.96000000
   N     40.79000000   115.31000000    22.21000000
   C     41.87000000   114.42000000    22.61000000
   H     42.72200000   115.01100000    22.94400000
   H     41.53100000   113.78000000    23.42400000
   H     42.16700000   113.80300000    21.76200000
   H     40.92000000   116.30000000    22.39000000
  Ca     34.81000000   116.45800000    15.24000000
   O     32.88000000   114.73800000    16.17000000
   H     31.98000000   115.07800000    16.26000000
   H     32.93000000   114.01800000    16.81000000
   O     33.30000000   117.72800000    17.38000000
   H     32.92000000   117.57800000    18.24000000
   H     33.40000000   118.67800000    17.32000000
   O     35.07000000   119.60800000    15.99000000
   H     35.65000000   120.01800000    15.35000000
   H     35.63000000   119.01800000    16.49000000
   O     35.27000000   118.07800000    13.13000000
   H     35.00000000   118.93800000    12.80000000
   H     35.47000000   117.56800000    12.35000000
   O     32.51000000   117.45800000    14.02000000
   H     31.66000000   117.16800000    13.69000000
   H     32.42000000   118.40800000    14.12000000

Ca 1.00



