%chk=loop1.cluster53.chk
%nprocshared=20
%mem=10GB
%nosave
#b3lyp/svp scf=(tight,noincore,xqc) Test 
#IOP(5/87=12) Density=Current Pop=(MK,readradii) iop(6/33=2) iop(6/42=6)

loop1.cluster53 

   0  1 
   C     45.41000000    37.75000000     7.04000000
   C     45.69000000    37.69000000     5.54000000
   O     46.69000000    38.26000000     5.11000000
   H     44.36500000    37.50100000     7.22400000
   H     46.05000000    37.03600000     7.55800000
   H     45.61400000    38.75600000     7.40800000
   N     44.79000000    36.98000000     4.85000000
   C     44.72000000    36.90000000     3.40000000
   C     43.82000000    37.89000000     2.68000000
   O     43.22000000    37.51000000     1.68000000
   C     44.52000000    35.47000000     2.90000000
   C     43.17000000    34.94000000     3.36000000
   O     43.00000000    34.91000000     4.60000000
   O     42.48000000    34.16000000     2.67000000
   H     44.13000000    36.40000000     5.34000000
   H     45.68000000    37.18000000     2.97000000
   H     45.19000000    34.73000000     3.34000000
   H     44.65000000    35.37000000     1.82000000
   N     43.58000000    39.12000000     3.14000000
   C     42.96000000    40.15000000     2.35000000
   C     43.90000000    41.35000000     2.31000000
   O     43.90000000    42.10000000     3.28000000
   C     41.56000000    40.48000000     2.86000000
   C     40.54000000    39.34000000     2.90000000
   C     39.21000000    39.82000000     3.48000000
   C     38.10000000    38.78000000     3.37000000
   N     36.89000000    39.14000000     4.12000000
   H     43.78000000    39.37000000     4.10000000
   H     42.75000000    39.80000000     1.33000000
   H     41.26000000    41.37000000     2.32000000
   H     41.75000000    40.91000000     3.84000000
   H     40.95000000    38.59000000     3.57000000
   H     40.33000000    38.94000000     1.91000000
   H     38.84000000    40.75000000     3.04000000
   H     39.42000000    39.96000000     4.54000000
   H     38.44000000    37.79000000     3.68000000
   H     37.86000000    38.67000000     2.31000000
   H     36.65000000    40.12000000     4.06000000
   H     36.13000000    38.51000000     3.89000000
   H     37.00000000    38.93000000     5.10000000
   N     44.62000000    41.72000000     1.25000000
   C     44.87000000    41.08000000    -0.02000000
   C     43.65000000    41.15000000    -0.92000000
   O     42.53000000    41.48000000    -0.54000000
   C     45.35000000    39.64000000     0.17000000
   C     46.79000000    39.48000000    -0.28000000
   O     47.66000000    40.37000000    -0.16000000
   O     47.04000000    38.35000000    -0.76000000
   H     45.02000000    42.65000000     1.31000000
   H     45.63000000    41.72000000    -0.48000000
   H     44.68000000    39.04000000    -0.45000000
   H     45.45000000    39.32000000     1.20000000
   N     43.83000000    40.99000000    -2.23000000
   C     45.02000000    40.77000000    -3.02000000
   C     44.60000000    40.29000000    -4.40000000
   O     43.65000000    40.86000000    -4.95000000
   H     42.97000000    41.13000000    -2.75000000
   H     45.72000000    40.10000000    -2.52000000
   H     45.47000000    41.73000000    -3.28000000
   N     45.21000000    39.24000000    -4.96000000
   C     45.80000000    38.09000000    -4.30000000
   C     44.79000000    37.30000000    -3.49000000
   O     43.68000000    37.09000000    -3.98000000
   C     46.68000000    37.25000000    -5.22000000
   C     46.80000000    35.79000000    -4.78000000
   O     47.59000000    35.54000000    -3.84000000
   O     46.09000000    34.91000000    -5.30000000
   H     45.01000000    39.06000000    -5.93000000
   H     46.46000000    38.50000000    -3.53000000
   H     47.62000000    37.78000000    -5.39000000
   H     46.11000000    37.21000000    -6.14000000
   N     45.14000000    36.85000000    -2.28000000
   C     44.34000000    35.90000000    -1.54000000
   C     45.14000000    34.92000000    -0.70000000
   O     44.62000000    33.84000000    -0.47000000
   H     46.08000000    37.08000000    -1.99000000
   H     43.68000000    35.29000000    -2.15000000
   H     43.64000000    36.38000000    -0.86000000
   N     46.36000000    35.22000000    -0.24000000
   C     47.12000000    34.47000000     0.74000000
   C     47.86000000    35.35000000     1.75000000
   O     48.31000000    36.42000000     1.33000000
   C     48.17000000    33.55000000     0.13000000
   C     47.58000000    32.39000000    -0.67000000
   O     49.06000000    32.96000000     1.05000000
   H     46.73000000    36.15000000    -0.35000000
   H     46.52000000    33.83000000     1.39000000
   H     48.69000000    34.17000000    -0.59000000
   H     49.51000000    32.32000000     0.49000000
   H     46.77000000    31.85000000    -0.18000000
   H     47.05000000    32.85000000    -1.50000000
   H     48.40000000    31.74000000    -0.98000000
   N     47.97000000    35.02000000     3.04000000
   C     48.67000000    35.82000000     4.03000000
   C     50.13000000    36.05000000     3.67000000
   O     50.43000000    37.24000000     3.68000000
   C     48.53000000    35.31000000     5.46000000
   C     49.36000000    36.07000000     6.49000000
   C     48.76000000    33.81000000     5.64000000
   C     48.87000000    35.86000000     7.92000000
   H     47.68000000    34.06000000     3.14000000
   H     48.15000000    36.77000000     3.95000000
   H     47.48000000    35.36000000     5.75000000
   H     49.15000000    37.10000000     6.21000000
   H     50.44000000    35.93000000     6.43000000
   H     48.19000000    33.29000000     4.87000000
   H     49.82000000    33.58000000     5.54000000
   H     48.39000000    33.44000000     6.59000000
   H     49.01000000    34.86000000     8.35000000
   H     49.43000000    36.55000000     8.55000000
   H     47.80000000    36.08000000     7.91000000
   N     50.90000000    35.01000000     3.36000000
   C     52.22000000    35.06000000     2.76000000
   C     53.34000000    35.81000000     3.47000000
   O     54.40000000    35.20000000     3.58000000
   C     52.12000000    35.47000000     1.29000000
   C     53.47000000    35.62000000     0.59000000
   O     51.50000000    36.71000000     1.04000000
   H     50.46000000    34.10000000     3.43000000
   H     52.52000000    34.02000000     2.71000000
   H     51.61000000    34.68000000     0.74000000
   H     52.12000000    37.44000000     1.12000000
   H     54.05000000    36.51000000     0.81000000
   H     54.04000000    34.74000000     0.88000000
   H     53.38000000    35.47000000    -0.49000000
   N     53.09000000    36.97000000     4.08000000
   C     54.14000000    37.77000000     4.69000000
   C     55.23000000    38.25000000     3.74000000
   O     55.60000000    37.67000000     2.72000000
   C     54.68000000    37.18000000     5.98000000
   C     55.04000000    38.14000000     7.11000000
   O     55.80000000    36.38000000     5.67000000
   H     52.19000000    37.42000000     3.98000000
   H     53.65000000    38.67000000     5.03000000
   H     53.89000000    36.56000000     6.42000000
   H     55.40000000    35.71000000     5.11000000
   H     54.18000000    38.81000000     7.11000000
   H     55.11000000    37.60000000     8.05000000
   H     56.00000000    38.64000000     6.98000000
   N     55.72000000    39.46000000     3.98000000
   C     56.71000000    40.15000000     3.17000000
   C     56.33000000    41.39000000     2.38000000
   O     57.10000000    41.78000000     1.51000000
   C     57.85000000    40.54000000     4.11000000
   C     58.60000000    39.38000000     4.76000000
   C     59.49000000    38.86000000     3.63000000
   C     60.14000000    37.52000000     3.99000000
   N     60.08000000    36.60000000     2.85000000
   H     55.32000000    39.92000000     4.78000000
   H     57.16000000    39.56000000     2.38000000
   H     57.42000000    41.19000000     4.87000000
   H     58.54000000    41.23000000     3.62000000
   H     57.94000000    38.55000000     5.01000000
   H     59.15000000    39.76000000     5.62000000
   H     60.30000000    39.56000000     3.43000000
   H     58.87000000    38.63000000     2.76000000
   H     59.51000000    37.10000000     4.78000000
   H     61.18000000    37.72000000     4.23000000
   H     60.65000000    36.98000000     2.11000000
   H     60.33000000    35.67000000     3.17000000
   H     59.16000000    36.42000000     2.47000000
   N     55.28000000    42.19000000     2.62000000
   C     54.10000000    42.05000000     3.45000000
   C     54.29000000    41.89000000     4.95000000
   O     53.48000000    41.21000000     5.57000000
   C     53.12000000    41.09000000     2.79000000
   C     52.77000000    41.36000000     1.33000000
   C     52.01000000    40.24000000     0.63000000
   O     50.87000000    40.43000000     0.17000000
   O     52.57000000    39.12000000     0.53000000
   H     55.22000000    42.98000000     2.00000000
   H     53.63000000    43.01000000     3.29000000
   H     52.22000000    41.11000000     3.41000000
   H     53.64000000    40.13000000     2.83000000
   H     53.69000000    41.56000000     0.78000000
   H     52.22000000    42.29000000     1.30000000
   N     55.28000000    42.59000000     5.53000000
   C     55.36000000    42.92000000     6.94000000
   H     55.70100000    43.94900000     7.05300000
   H     54.37600000    42.81200000     7.39500000
   H     56.06400000    42.24800000     7.43200000
   H     55.75000000    43.26000000     4.95000000
  Ca     49.66000000    38.29000000    -0.49300000
   O     49.42000000    36.28000000    -2.19300000
   H     48.59000000    36.04000000    -2.59300000
   H     50.08000000    35.96000000    -2.80300000
   O     49.83000000    39.06000000    -3.09300000
   H     49.82000000    39.90000000    -3.54300000
   H     49.50000000    38.43000000    -3.74300000
   O     49.31000000    39.08000000     2.16000000
   H     49.71000000    38.52000000     2.83000000
   H     48.76000000    39.69000000     2.66000000
   O     52.18000000    37.80000000    -1.95300000
   H     52.51000000    38.48000000    -1.36300000
   H     52.97000000    37.36000000    -2.26300000

Ca 1.00



