%chk=loop3.cluster26.chk
%nprocshared=20
%mem=10GB
%nosave
#b3lyp/svp scf=(tight,noincore,xqc) Test 
#IOP(5/87=12) Density=Current Pop=(MK,readradii) iop(6/33=2) iop(6/42=6)

loop3.cluster26 

   0  1 
   C     66.05000000    49.71000000    33.52000000
   C     65.68000000    48.43000000    34.24000000
   O     66.33000000    47.41000000    34.00000000
   H     67.05100000    49.61300000    33.09900000
   H     65.33600000    49.89600000    32.71800000
   H     66.03200000    50.54200000    34.22400000
   N     64.62000000    48.48000000    35.06000000
   C     63.98000000    47.31000000    35.62000000
   C     63.41000000    46.37000000    34.57000000
   O     62.20000000    46.16000000    34.48000000
   C     62.95000000    47.69000000    36.69000000
   C     62.43000000    46.55000000    37.54000000
   O     61.38000000    46.67000000    38.22000000
   O     63.13000000    45.51000000    37.58000000
   H     64.06000000    49.32000000    35.06000000
   H     64.73000000    46.75000000    36.19000000
   H     62.17000000    48.27000000    36.19000000
   H     63.35000000    48.42000000    37.40000000
   N     64.24000000    45.66000000    33.81000000
   C     63.78000000    45.00000000    32.61000000
   C     63.29000000    43.57000000    32.83000000
   O     62.89000000    42.92000000    31.87000000
   C     64.80000000    45.10000000    31.48000000
   C     66.08000000    44.31000000    31.74000000
   C     66.73000000    44.05000000    30.38000000
   C     68.21000000    43.81000000    30.67000000
   N     69.06000000    44.98000000    30.40000000
   H     65.22000000    45.75000000    34.03000000
   H     62.87000000    45.54000000    32.31000000
   H     65.07000000    46.16000000    31.44000000
   H     64.28000000    44.71000000    30.60000000
   H     65.99000000    43.40000000    32.34000000
   H     66.75000000    44.89000000    32.36000000
   H     66.58000000    44.79000000    29.59000000
   H     66.25000000    43.12000000    30.09000000
   H     68.51000000    42.92000000    30.14000000
   H     68.28000000    43.57000000    31.73000000
   H     69.97000000    44.79000000    30.78000000
   H     69.10000000    45.26000000    29.43000000
   H     68.75000000    45.82000000    30.87000000
   N     63.30000000    43.15000000    34.10000000
   C     62.69000000    41.92000000    34.56000000
   C     61.50000000    42.23000000    35.46000000
   O     60.76000000    41.29000000    35.74000000
   C     63.70000000    41.05000000    35.31000000
   C     64.47000000    41.81000000    36.38000000
   O     64.26000000    43.02000000    36.59000000
   O     65.28000000    41.27000000    37.16000000
   H     63.56000000    43.84000000    34.79000000
   H     62.37000000    41.28000000    33.74000000
   H     64.46000000    40.65000000    34.64000000
   H     63.25000000    40.10000000    35.60000000
   N     61.13000000    43.49000000    35.73000000
   C     59.93000000    43.98000000    36.37000000
   C     59.92000000    43.81000000    37.88000000
   O     58.85000000    43.73000000    38.47000000
   H     61.77000000    44.22000000    35.46000000
   H     59.15000000    43.42000000    35.84000000
   H     59.74000000    45.02000000    36.13000000
   N     61.06000000    43.73000000    38.58000000
   C     61.08000000    43.13000000    39.90000000
   C     61.10000000    44.14000000    41.04000000
   O     61.36000000    43.82000000    42.20000000
   C     62.20000000    42.09000000    39.90000000
   C     63.54000000    42.52000000    40.48000000
   N     64.04000000    41.99000000    41.60000000
   O     64.17000000    43.41000000    39.92000000
   H     61.93000000    43.83000000    38.08000000
   H     60.17000000    42.56000000    40.06000000
   H     62.36000000    41.70000000    38.89000000
   H     61.99000000    41.30000000    40.61000000
   H     63.60000000    41.16000000    41.97000000
   H     64.87000000    42.29000000    42.08000000
   N     60.88000000    45.40000000    40.65000000
   C     60.70000000    46.58000000    41.48000000
   C     62.04000000    47.12000000    41.96000000
   O     61.93000000    47.94000000    42.86000000
   H     60.87000000    45.55000000    39.65000000
   H     60.02000000    46.50000000    42.32000000
   H     60.31000000    47.34000000    40.80000000
   N     63.18000000    46.75000000    41.37000000
   C     64.45000000    47.37000000    41.68000000
   C     65.24000000    47.57000000    40.39000000
   O     65.14000000    46.78000000    39.46000000
   C     65.29000000    46.51000000    42.62000000
   C     64.51000000    46.11000000    43.85000000
   C     64.47000000    46.97000000    44.96000000
   C     63.85000000    44.87000000    43.89000000
   C     63.70000000    46.62000000    46.07000000
   C     63.17000000    44.47000000    45.05000000
   C     63.14000000    45.33000000    46.17000000
   O     62.47000000    45.02000000    47.31000000
   H     63.18000000    46.16000000    40.55000000
   H     64.25000000    48.32000000    42.17000000
   H     66.17000000    47.11000000    42.85000000
   H     65.65000000    45.64000000    42.08000000
   H     65.01000000    47.90000000    44.93000000
   H     63.89000000    44.27000000    43.00000000
   H     63.48000000    47.26000000    46.92000000
   H     62.59000000    43.57000000    45.03000000
   H     61.94000000    44.22000000    47.19000000
   N     66.13000000    48.57000000    40.34000000
   C     67.20000000    48.77000000    39.38000000
   C     68.47000000    48.17000000    39.97000000
   O     68.83000000    48.44000000    41.11000000
   C     67.41000000    50.24000000    39.01000000
   C     66.14000000    50.76000000    38.34000000
   C     68.65000000    50.44000000    38.14000000
   C     66.20000000    52.28000000    38.25000000
   H     65.97000000    49.25000000    41.06000000
   H     67.04000000    48.37000000    38.38000000
   H     67.55000000    50.73000000    39.97000000
   H     65.27000000    50.52000000    38.95000000
   H     66.03000000    50.33000000    37.35000000
   H     69.53000000    49.98000000    38.58000000
   H     68.53000000    49.85000000    37.22000000
   H     68.82000000    51.42000000    37.70000000
   H     67.01000000    52.60000000    37.59000000
   H     65.31000000    52.61000000    37.71000000
   H     66.10000000    52.82000000    39.19000000
   N     69.23000000    47.37000000    39.22000000
   C     70.65000000    47.11000000    39.37000000
   C     71.65000000    47.80000000    38.46000000
   O     71.38000000    48.55000000    37.52000000
   C     70.86000000    45.59000000    39.33000000
   O     70.87000000    45.13000000    38.00000000
   H     68.69000000    46.95000000    38.48000000
   H     70.86000000    47.45000000    40.38000000
   H     70.08000000    45.13000000    39.92000000
   H     71.79000000    45.34000000    39.82000000
   H     70.52000000    44.25000000    38.16000000
   N     72.93000000    47.60000000    38.78000000
   C     74.14000000    48.05000000    38.11000000
   C     74.33000000    47.67000000    36.65000000
   O     74.61000000    48.53000000    35.81000000
   C     75.39000000    47.66000000    38.88000000
   H     73.16000000    47.23000000    39.70000000
   H     74.06000000    49.14000000    38.15000000
   H     76.23000000    48.11000000    38.35000000
   H     75.23000000    48.01000000    39.90000000
   H     75.46000000    46.58000000    38.94000000
   N     74.03000000    46.42000000    36.28000000
   C     73.95000000    45.88000000    34.94000000
   C     72.80000000    46.46000000    34.12000000
   O     73.07000000    46.89000000    33.00000000
   C     73.92000000    44.36000000    34.98000000
   H     73.65000000    45.85000000    37.02000000
   H     74.82000000    46.26000000    34.41000000
   H     74.88000000    43.96000000    35.29000000
   H     73.05000000    44.12000000    35.60000000
   H     73.85000000    44.00000000    33.95000000
   N     71.62000000    46.53000000    34.74000000
   C     70.44000000    47.20000000    34.22000000
   C     70.71000000    48.67000000    33.92000000
   O     70.39000000    49.13000000    32.83000000
   C     69.31000000    47.04000000    35.23000000
   C     68.82000000    45.59000000    35.19000000
   C     67.60000000    45.33000000    36.06000000
   O     66.96000000    44.28000000    35.85000000
   O     67.26000000    46.01000000    37.05000000
   H     71.70000000    46.19000000    35.69000000
   H     70.06000000    46.75000000    33.30000000
   H     68.48000000    47.72000000    35.08000000
   H     69.63000000    47.22000000    36.26000000
   H     69.65000000    44.89000000    35.35000000
   H     68.55000000    45.35000000    34.17000000
   N     71.49000000    49.34000000    34.77000000
   C     71.88000000    50.73000000    34.63000000
   H     72.84500000    50.78700000    34.12700000
   H     71.13200000    51.26000000    34.04100000
   H     71.95800000    51.18700000    35.61600000
   H     71.74000000    48.96000000    35.67000000
  Ca     65.49000000    44.57000000    38.11000000
   O     67.06000000    41.82000000    38.97000000
   H     66.39000000    41.39000000    38.44000000
   H     67.07000000    41.34000000    39.79000000
   O     67.52000000    44.72000000    40.02000000
   H     67.81000000    44.84000000    40.93000000
   H     68.21000000    44.19000000    39.62000000

Ca 1.00



