%chk=loop3.cluster24.chk
%nprocshared=20
%mem=10GB
%nosave
#b3lyp/svp scf=(tight,noincore,xqc) Test 
#IOP(5/87=12) Density=Current Pop=(MK,readradii) iop(6/33=2) iop(6/42=6)

loop3.cluster24 

   0  1 
   C     71.15000000    48.06000000    37.39000000
   C     70.40000000    47.73000000    38.67000000
   O     70.68000000    46.74000000    39.33000000
   H     72.14900000    47.62700000    37.43300000
   H     70.61200000    47.64700000    36.53600000
   H     71.22800000    49.14200000    37.28300000
   N     69.30000000    48.45000000    38.89000000
   C     68.27000000    48.22000000    39.89000000
   C     67.29000000    47.14000000    39.42000000
   O     66.21000000    47.42000000    38.92000000
   C     67.57000000    49.54000000    40.17000000
   C     66.65000000    49.46000000    41.39000000
   O     66.57000000    48.39000000    42.04000000
   O     66.04000000    50.51000000    41.64000000
   H     69.15000000    49.28000000    38.33000000
   H     68.67000000    47.89000000    40.85000000
   H     66.94000000    49.89000000    39.35000000
   H     68.37000000    50.27000000    40.31000000
   N     67.67000000    45.87000000    39.50000000
   C     67.05000000    44.73000000    38.86000000
   C     65.59000000    44.47000000    39.21000000
   O     64.83000000    44.28000000    38.26000000
   C     67.76000000    43.43000000    39.23000000
   C     67.26000000    42.09000000    38.69000000
   C     68.13000000    40.84000000    38.81000000
   C     67.53000000    39.61000000    38.13000000
   N     68.22000000    38.35000000    38.42000000
   H     68.63000000    45.75000000    39.79000000
   H     67.02000000    44.89000000    37.78000000
   H     67.75000000    43.42000000    40.32000000
   H     68.82000000    43.48000000    38.96000000
   H     66.75000000    42.12000000    37.72000000
   H     66.36000000    41.81000000    39.23000000
   H     68.34000000    40.63000000    39.86000000
   H     69.14000000    41.01000000    38.46000000
   H     67.55000000    39.71000000    37.04000000
   H     66.54000000    39.46000000    38.57000000
   H     68.27000000    38.06000000    39.39000000
   H     67.74000000    37.56000000    38.00000000
   H     69.20000000    38.37000000    38.19000000
   N     65.16000000    44.69000000    40.45000000
   C     63.79000000    44.69000000    40.92000000
   C     63.11000000    46.05000000    40.89000000
   O     61.99000000    46.13000000    41.40000000
   C     63.75000000    44.13000000    42.34000000
   C     64.69000000    44.74000000    43.38000000
   O     64.97000000    43.94000000    44.30000000
   O     65.17000000    45.88000000    43.23000000
   H     65.85000000    44.82000000    41.17000000
   H     63.28000000    43.99000000    40.25000000
   H     63.97000000    43.08000000    42.18000000
   H     62.74000000    44.17000000    42.75000000
   N     63.83000000    47.11000000    40.51000000
   C     63.44000000    48.50000000    40.61000000
   C     63.17000000    49.20000000    41.94000000
   O     62.31000000    50.07000000    42.01000000
   H     64.77000000    46.91000000    40.19000000
   H     62.57000000    48.74000000    40.01000000
   H     64.23000000    48.87000000    39.96000000
   N     63.78000000    48.73000000    43.03000000
   C     63.42000000    49.12000000    44.38000000
   C     64.02000000    50.44000000    44.83000000
   O     63.88000000    50.79000000    46.00000000
   C     63.72000000    47.95000000    45.32000000
   C     65.15000000    47.72000000    45.76000000
   N     65.54000000    46.67000000    46.48000000
   O     66.08000000    48.41000000    45.34000000
   H     64.56000000    48.10000000    42.91000000
   H     62.35000000    49.31000000    44.41000000
   H     63.42000000    47.02000000    44.83000000
   H     63.05000000    48.02000000    46.18000000
   H     64.87000000    46.05000000    46.91000000
   H     66.49000000    46.65000000    46.83000000
   N     64.70000000    51.08000000    43.87000000
   C     65.24000000    52.41000000    44.00000000
   C     66.68000000    52.50000000    44.47000000
   O     67.08000000    53.57000000    44.92000000
   H     64.82000000    50.61000000    42.98000000
   H     64.76000000    53.04000000    44.75000000
   H     65.25000000    52.92000000    43.03000000
   N     67.27000000    51.31000000    44.59000000
   C     68.61000000    51.01000000    45.06000000
   C     69.25000000    49.92000000    44.22000000
   O     68.63000000    48.99000000    43.71000000
   C     68.53000000    50.52000000    46.51000000
   C     68.07000000    51.51000000    47.54000000
   C     69.00000000    52.44000000    48.02000000
   C     66.77000000    51.51000000    48.05000000
   C     68.61000000    53.36000000    49.00000000
   C     66.32000000    52.39000000    49.05000000
   C     67.30000000    53.28000000    49.52000000
   O     66.96000000    54.18000000    50.48000000
   H     66.79000000    50.52000000    44.20000000
   H     69.20000000    51.92000000    44.94000000
   H     69.48000000    50.05000000    46.76000000
   H     67.84000000    49.68000000    46.56000000
   H     70.02000000    52.49000000    47.67000000
   H     66.05000000    50.78000000    47.72000000
   H     69.28000000    54.12000000    49.36000000
   H     65.27000000    52.51000000    49.27000000
   H     66.06000000    53.99000000    50.76000000
   N     70.59000000    49.88000000    44.17000000
   C     71.43000000    48.94000000    43.47000000
   C     72.27000000    48.28000000    44.56000000
   O     72.70000000    48.91000000    45.52000000
   C     72.29000000    49.72000000    42.48000000
   C     71.42000000    50.15000000    41.30000000
   C     73.50000000    48.92000000    42.02000000
   C     72.10000000    51.22000000    40.45000000
   H     71.15000000    50.61000000    44.60000000
   H     70.87000000    48.19000000    42.91000000
   H     72.56000000    50.63000000    43.00000000
   H     70.49000000    50.55000000    41.71000000
   H     71.30000000    49.28000000    40.66000000
   H     73.12000000    48.03000000    41.52000000
   H     74.11000000    49.44000000    41.28000000
   H     74.26000000    48.65000000    42.76000000
   H     72.36000000    52.14000000    40.98000000
   H     73.12000000    50.94000000    40.16000000
   H     71.57000000    51.50000000    39.55000000
   N     72.50000000    46.97000000    44.37000000
   C     73.20000000    46.01000000    45.19000000
   C     74.11000000    45.14000000    44.33000000
   O     73.93000000    45.08000000    43.11000000
   C     72.18000000    45.16000000    45.95000000
   O     71.17000000    44.52000000    45.19000000
   H     72.10000000    46.49000000    43.58000000
   H     73.78000000    46.54000000    45.95000000
   H     71.68000000    45.91000000    46.56000000
   H     72.66000000    44.38000000    46.54000000
   H     70.84000000    45.19000000    44.58000000
   N     75.09000000    44.44000000    44.90000000
   C     76.20000000    43.85000000    44.18000000
   C     75.76000000    42.80000000    43.18000000
   O     76.23000000    42.82000000    42.04000000
   C     77.12000000    43.13000000    45.17000000
   H     75.23000000    44.58000000    45.89000000
   H     76.75000000    44.60000000    43.61000000
   H     77.74000000    42.41000000    44.64000000
   H     77.68000000    43.91000000    45.69000000
   H     76.45000000    42.75000000    45.94000000
   N     74.85000000    41.90000000    43.58000000
   C     74.25000000    40.88000000    42.74000000
   C     73.42000000    41.38000000    41.57000000
   O     73.53000000    40.79000000    40.50000000
   C     73.32000000    40.02000000    43.58000000
   H     74.60000000    41.99000000    44.55000000
   H     75.05000000    40.19000000    42.50000000
   H     72.59000000    40.58000000    44.16000000
   H     72.71000000    39.37000000    42.95000000
   H     73.83000000    39.28000000    44.20000000
   N     72.66000000    42.47000000    41.70000000
   C     71.94000000    43.04000000    40.58000000
   C     72.87000000    43.70000000    39.56000000
   O     72.63000000    43.67000000    38.36000000
   C     71.03000000    44.15000000    41.09000000
   C     70.08000000    43.68000000    42.18000000
   C     69.16000000    44.79000000    42.66000000
   O     67.95000000    44.79000000    42.33000000
   O     69.67000000    45.78000000    43.23000000
   H     72.52000000    42.82000000    42.63000000
   H     71.37000000    42.31000000    40.00000000
   H     70.37000000    44.50000000    40.29000000
   H     71.56000000    45.04000000    41.44000000
   H     70.58000000    43.26000000    43.05000000
   H     69.51000000    42.79000000    41.89000000
   N     73.93000000    44.35000000    40.05000000
   C     74.98000000    44.85000000    39.19000000
   H     75.88500000    44.26200000    39.34300000
   H     74.66700000    44.77000000    38.14900000
   H     75.18100000    45.89400000    39.43000000
   H     74.09000000    44.32000000    41.05000000
  Ca     67.39000000    46.70000000    43.93000000
   O     67.31000000    44.48000000    45.21000000
   H     66.43000000    44.14000000    45.09000000
   H     67.73000000    43.86000000    45.80000000
   O     68.71000000    46.92000000    46.21000000
   H     69.14000000    46.18000000    46.65000000
   H     68.69000000    47.61000000    46.88000000

Ca 1.00



