%chk=loop3.cluster141.chk
%nprocshared=20
%mem=10GB
%nosave
#b3lyp/svp scf=(tight,noincore,xqc) Test 
#IOP(5/87=12) Density=Current Pop=(MK,readradii) iop(6/33=2) iop(6/42=6)

loop3.cluster141 

   0  1 
   C     57.82000000    53.91000000    19.64000000
   C     57.18000000    55.29000000    19.55000000
   O     55.99000000    55.43000000    19.26000000
   H     58.77700000    53.98700000    20.15700000
   H     57.16200000    53.23900000    20.19300000
   H     57.98000000    53.51700000    18.63600000
   N     57.92000000    56.30000000    20.01000000
   C     57.68000000    57.68000000    20.40000000
   C     57.03000000    58.62000000    19.39000000
   O     57.51000000    59.73000000    19.19000000
   C     56.87000000    57.74000000    21.69000000
   C     57.37000000    56.97000000    22.90000000
   O     57.38000000    57.59000000    23.99000000
   O     57.85000000    55.82000000    22.81000000
   H     58.90000000    56.05000000    20.02000000
   H     58.66000000    58.09000000    20.61000000
   H     55.90000000    57.30000000    21.45000000
   H     56.74000000    58.78000000    22.02000000
   N     55.90000000    58.24000000    18.79000000
   C     55.30000000    58.95000000    17.68000000
   C     54.96000000    60.42000000    17.85000000
   O     54.86000000    61.06000000    16.80000000
   C     54.09000000    58.13000000    17.26000000
   C     52.84000000    58.51000000    18.05000000
   C     52.76000000    58.25000000    19.55000000
   C     51.40000000    58.56000000    20.16000000
   N     51.51000000    58.80000000    21.61000000
   H     55.54000000    57.34000000    19.07000000
   H     56.13000000    58.95000000    16.96000000
   H     54.13000000    57.07000000    17.51000000
   H     53.90000000    58.21000000    16.19000000
   H     52.01000000    57.93000000    17.65000000
   H     52.63000000    59.57000000    17.91000000
   H     53.50000000    58.85000000    20.10000000
   H     52.95000000    57.19000000    19.71000000
   H     50.74000000    57.70000000    20.05000000
   H     50.97000000    59.44000000    19.68000000
   H     52.39000000    59.27000000    21.77000000
   H     50.72000000    59.29000000    22.00000000
   H     51.56000000    57.94000000    22.13000000
   N     54.70000000    60.92000000    19.06000000
   C     54.20000000    62.26000000    19.29000000
   C     55.06000000    62.99000000    20.32000000
   O     55.63000000    62.35000000    21.20000000
   C     52.74000000    62.20000000    19.72000000
   C     52.03000000    63.51000000    20.03000000
   O     51.30000000    63.58000000    21.05000000
   O     52.42000000    64.58000000    19.52000000
   H     54.75000000    60.27000000    19.83000000
   H     54.17000000    62.91000000    18.42000000
   H     52.55000000    61.65000000    20.64000000
   H     52.21000000    61.56000000    19.02000000
   N     55.11000000    64.32000000    20.25000000
   C     55.78000000    65.26000000    21.13000000
   C     55.06000000    65.60000000    22.43000000
   O     53.92000000    66.08000000    22.42000000
   H     54.29000000    64.66000000    19.77000000
   H     55.96000000    66.21000000    20.63000000
   H     56.79000000    64.90000000    21.30000000
   N     55.70000000    65.21000000    23.53000000
   C     55.20000000    65.13000000    24.89000000
   C     56.32000000    65.27000000    25.90000000
   O     56.13000000    65.79000000    27.00000000
   C     54.54000000    63.77000000    25.09000000
   C     53.19000000    63.61000000    24.39000000
   N     52.24000000    64.51000000    24.63000000
   O     53.05000000    62.78000000    23.49000000
   H     56.62000000    64.81000000    23.53000000
   H     54.57000000    66.02000000    24.98000000
   H     54.38000000    63.75000000    26.16000000
   H     55.22000000    62.97000000    24.78000000
   H     52.35000000    65.17000000    25.38000000
   H     51.29000000    64.34000000    24.32000000
   N     57.58000000    64.90000000    25.64000000
   C     58.68000000    65.13000000    26.54000000
   C     58.57000000    64.40000000    27.88000000
   O     58.17000000    63.24000000    27.93000000
   H     57.82000000    64.42000000    24.78000000
   H     58.78000000    66.21000000    26.62000000
   H     59.57000000    64.83000000    25.99000000
   N     58.91000000    65.14000000    28.93000000
   C     58.55000000    64.87000000    30.31000000
   C     57.05000000    64.85000000    30.58000000
   O     56.64000000    64.91000000    31.74000000
   C     59.27000000    63.70000000    30.97000000
   C     60.78000000    63.78000000    30.93000000
   C     61.44000000    64.65000000    31.81000000
   C     61.51000000    62.90000000    30.13000000
   C     62.83000000    64.67000000    31.92000000
   C     62.91000000    63.00000000    30.16000000
   C     63.58000000    63.83000000    31.07000000
   O     64.94000000    63.74000000    31.20000000
   H     59.12000000    66.11000000    28.73000000
   H     58.81000000    65.76000000    30.87000000
   H     58.96000000    62.83000000    30.39000000
   H     59.01000000    63.59000000    32.03000000
   H     60.85000000    65.28000000    32.46000000
   H     61.02000000    62.33000000    29.36000000
   H     63.38000000    65.24000000    32.66000000
   H     63.49000000    62.37000000    29.49000000
   H     65.27000000    62.97000000    30.75000000
   N     56.16000000    64.67000000    29.59000000
   C     54.75000000    64.36000000    29.60000000
   C     53.82000000    65.32000000    30.33000000
   O     52.93000000    65.89000000    29.71000000
   C     54.58000000    62.89000000    30.01000000
   C     55.41000000    61.71000000    29.50000000
   C     53.14000000    62.44000000    29.78000000
   C     55.47000000    61.52000000    27.99000000
   H     56.63000000    64.56000000    28.71000000
   H     54.48000000    64.38000000    28.55000000
   H     54.83000000    62.89000000    31.07000000
   H     55.06000000    60.81000000    29.99000000
   H     56.46000000    61.95000000    29.71000000
   H     52.96000000    61.41000000    30.06000000
   H     52.54000000    63.14000000    30.36000000
   H     52.89000000    62.60000000    28.73000000
   H     54.47000000    61.33000000    27.59000000
   H     55.86000000    62.37000000    27.43000000
   H     56.14000000    60.68000000    27.81000000
   N     54.15000000    65.72000000    31.56000000
   C     53.42000000    66.59000000    32.46000000
   C     51.97000000    66.22000000    32.72000000
   O     51.08000000    67.04000000    32.48000000
   C     54.17000000    66.61000000    33.80000000
   O     53.91000000    67.80000000    34.52000000
   H     54.89000000    65.14000000    31.93000000
   H     53.45000000    67.63000000    32.12000000
   H     55.22000000    66.58000000    33.52000000
   H     53.90000000    65.76000000    34.42000000
   H     54.33000000    67.88000000    35.38000000
   N     51.79000000    64.92000000    32.96000000
   C     50.46000000    64.39000000    33.18000000
   C     49.42000000    64.53000000    32.07000000
   O     48.23000000    64.31000000    32.26000000
   C     49.91000000    64.75000000    34.56000000
   H     52.59000000    64.35000000    33.18000000
   H     50.54000000    63.31000000    33.20000000
   H     50.72000000    64.68000000    35.28000000
   H     49.53000000    65.77000000    34.47000000
   H     49.12000000    64.05000000    34.83000000
   N     49.86000000    64.84000000    30.85000000
   C     48.98000000    65.14000000    29.74000000
   C     49.11000000    64.10000000    28.63000000
   O     50.10000000    63.40000000    28.45000000
   C     49.28000000    66.56000000    29.27000000
   H     50.85000000    64.98000000    30.73000000
   H     47.94000000    65.18000000    30.08000000
   H     50.26000000    66.60000000    28.79000000
   H     48.62000000    67.02000000    28.54000000
   H     49.29000000    67.17000000    30.17000000
   N     48.00000000    63.70000000    28.00000000
   C     47.82000000    62.61000000    27.06000000
   C     48.13000000    61.19000000    27.52000000
   O     48.66000000    60.33000000    26.82000000
   C     48.41000000    62.97000000    25.70000000
   C     48.06000000    64.35000000    25.17000000
   C     48.50000000    64.55000000    23.72000000
   O     47.65000000    64.57000000    22.81000000
   O     49.73000000    64.66000000    23.52000000
   H     47.16000000    64.20000000    28.24000000
   H     46.74000000    62.62000000    26.92000000
   H     48.02000000    62.18000000    25.06000000
   H     49.49000000    62.90000000    25.75000000
   H     48.46000000    65.08000000    25.87000000
   H     46.98000000    64.34000000    25.30000000
   N     47.65000000    60.78000000    28.70000000
   C     48.02000000    59.57000000    29.39000000
   H     48.92300000    59.74700000    29.97500000
   H     47.21100000    59.26800000    30.05500000
   H     48.20800000    58.78000000    28.66300000
   H     47.21000000    61.49000000    29.27000000
  Ca     51.21000000    66.02000000    21.85000000
   O     50.64000000    66.84000000    19.33000000
   H     50.54000000    65.93000000    19.05000000
   H     51.37000000    67.17000000    18.81000000
   O     48.83000000    65.36000000    20.60000000
   H     48.51000000    65.14000000    21.47000000
   H     48.05000000    65.37000000    20.05000000
   O     52.82000000    67.95000000    20.81000000
   H     53.02000000    68.24000000    19.92000000
   H     53.28000000    68.58000000    21.37000000
   O     49.24000000    67.81000000    22.38000000
   H     48.36000000    67.81000000    22.02000000
   H     49.23000000    68.51000000    23.04000000
   O     51.62000000    67.64000000    23.88000000
   H     51.25000000    68.52000000    23.89000000
   H     52.39000000    67.68000000    24.45000000

Ca 1.00



