%chk=loop3.cluster129.chk
%nprocshared=20
%mem=10GB
%nosave
#b3lyp/svp scf=(tight,noincore,xqc) Test 
#IOP(5/87=12) Density=Current Pop=(MK,readradii) iop(6/33=2) iop(6/42=6)

loop3.cluster129 

   0  1 
   C     -2.17000000   -21.60000000    32.80000000
   C     -2.91000000   -22.77000000    32.15000000
   O     -3.74000000   -23.37000000    32.84000000
   H     -1.24400000   -21.41000000    32.25800000
   H     -2.79800000   -20.70900000    32.76800000
   H     -1.94000000   -21.84600000    33.83700000
   N     -2.72000000   -22.99000000    30.85000000
   C     -3.30000000   -24.03000000    30.03000000
   C     -2.23000000   -25.00000000    29.55000000
   O     -1.22000000   -24.53000000    29.05000000
   C     -4.12000000   -23.42000000    28.90000000
   C     -4.90000000   -24.41000000    28.05000000
   O     -4.64000000   -25.63000000    28.02000000
   O     -5.92000000   -24.11000000    27.38000000
   H     -2.05000000   -22.40000000    30.38000000
   H     -4.07000000   -24.61000000    30.54000000
   H     -3.49000000   -22.84000000    28.22000000
   H     -4.84000000   -22.76000000    29.38000000
   N     -2.40000000   -26.31000000    29.79000000
   C     -1.53000000   -27.43000000    29.54000000
   C     -1.65000000   -27.95000000    28.12000000
   O     -0.78000000   -28.71000000    27.69000000
   C     -1.94000000   -28.54000000    30.51000000
   C     -0.86000000   -29.59000000    30.74000000
   C     -1.20000000   -30.58000000    31.85000000
   C     -2.52000000   -31.28000000    31.55000000
   N     -2.73000000   -32.42000000    32.46000000
   H     -3.33000000   -26.42000000    30.17000000
   H     -0.49000000   -27.14000000    29.72000000
   H     -2.91000000   -28.99000000    30.30000000
   H     -2.06000000   -28.07000000    31.49000000
   H      0.11000000   -29.18000000    31.03000000
   H     -0.76000000   -30.25000000    29.87000000
   H     -1.33000000   -29.95000000    32.73000000
   H     -0.41000000   -31.32000000    31.97000000
   H     -2.37000000   -31.60000000    30.52000000
   H     -3.35000000   -30.58000000    31.66000000
   H     -2.12000000   -33.20000000    32.27000000
   H     -2.85000000   -32.09000000    33.41000000
   H     -3.61000000   -32.83000000    32.19000000
   N     -2.69000000   -27.52000000    27.40000000
   C     -2.83000000   -27.90000000    26.00000000
   C     -2.92000000   -26.69000000    25.08000000
   O     -2.94000000   -26.89000000    23.87000000
   C     -4.09000000   -28.73000000    25.78000000
   C     -5.42000000   -28.14000000    26.23000000
   O     -5.85000000   -27.11000000    25.68000000
   O     -6.17000000   -28.73000000    27.04000000
   H     -3.44000000   -26.98000000    27.79000000
   H     -1.97000000   -28.48000000    25.68000000
   H     -3.87000000   -29.69000000    26.26000000
   H     -4.24000000   -28.98000000    24.73000000
   N     -2.95000000   -25.46000000    25.59000000
   C     -2.96000000   -24.20000000    24.87000000
   C     -4.20000000   -23.83000000    24.07000000
   O     -4.28000000   -22.83000000    23.35000000
   H     -3.12000000   -25.39000000    26.58000000
   H     -2.06000000   -24.16000000    24.26000000
   H     -2.97000000   -23.50000000    25.70000000
   N     -5.28000000   -24.60000000    24.18000000
   C     -6.56000000   -24.48000000    23.50000000
   C     -7.64000000   -24.05000000    24.48000000
   O     -7.95000000   -24.81000000    25.39000000
   C     -7.00000000   -25.70000000    22.70000000
   C     -8.13000000   -25.45000000    21.71000000
   N     -8.40000000   -26.26000000    20.69000000
   O     -8.74000000   -24.39000000    21.71000000
   H     -5.25000000   -25.46000000    24.72000000
   H     -6.48000000   -23.70000000    22.74000000
   H     -7.51000000   -26.39000000    23.37000000
   H     -6.17000000   -26.09000000    22.11000000
   H     -7.93000000   -27.16000000    20.67000000
   H     -9.24000000   -26.05000000    20.17000000
   N     -8.31000000   -22.90000000    24.35000000
   C     -9.30000000   -22.40000000    25.29000000
   C    -10.69000000   -22.98000000    25.13000000
   O    -11.71000000   -22.29000000    25.21000000
   H     -7.99000000   -22.31000000    23.59000000
   H     -9.40000000   -21.35000000    24.99000000
   H     -9.05000000   -22.58000000    26.33000000
   N    -10.78000000   -24.28000000    24.82000000
   C    -11.98000000   -25.08000000    24.85000000
   C    -12.49000000   -25.48000000    26.23000000
   O    -11.65000000   -25.95000000    26.99000000
   C    -11.94000000   -26.20000000    23.81000000
   C    -12.99000000   -27.26000000    24.02000000
   C    -12.76000000   -28.45000000    24.73000000
   C    -14.31000000   -27.06000000    23.59000000
   C    -13.73000000   -29.42000000    24.96000000
   C    -15.33000000   -27.98000000    23.84000000
   C    -15.03000000   -29.22000000    24.44000000
   O    -16.01000000   -30.15000000    24.56000000
   H     -9.90000000   -24.73000000    24.61000000
   H    -12.81000000   -24.56000000    24.38000000
   H    -10.94000000   -26.65000000    23.87000000
   H    -12.03000000   -25.83000000    22.79000000
   H    -11.76000000   -28.61000000    25.08000000
   H    -14.38000000   -26.12000000    23.06000000
   H    -13.42000000   -30.30000000    25.50000000
   H    -16.34000000   -27.84000000    23.47000000
   H    -16.82000000   -29.79000000    24.19000000
   N    -13.79000000   -25.33000000    26.50000000
   C    -14.39000000   -25.85000000    27.71000000
   C    -14.37000000   -27.37000000    27.80000000
   O    -13.35000000   -28.03000000    28.01000000
   C    -13.84000000   -25.11000000    28.92000000
   C    -14.45000000   -25.67000000    30.20000000
   C    -13.83000000   -23.58000000    28.85000000
   C    -15.96000000   -25.48000000    30.28000000
   H    -14.31000000   -24.84000000    25.79000000
   H    -15.43000000   -25.58000000    27.51000000
   H    -12.79000000   -25.39000000    29.01000000
   H    -13.97000000   -25.21000000    31.07000000
   H    -14.12000000   -26.70000000    30.36000000
   H    -13.25000000   -23.31000000    27.97000000
   H    -14.87000000   -23.28000000    28.79000000
   H    -13.34000000   -23.22000000    29.75000000
   H    -16.48000000   -26.00000000    29.47000000
   H    -16.37000000   -25.97000000    31.17000000
   H    -16.19000000   -24.42000000    30.24000000
   N    -15.59000000   -27.92000000    27.74000000
   C    -15.84000000   -29.25000000    28.24000000
   C    -17.28000000   -29.70000000    28.02000000
   O    -17.45000000   -30.78000000    27.46000000
   C    -15.65000000   -29.31000000    29.76000000
   O    -16.39000000   -28.39000000    30.52000000
   H    -16.36000000   -27.27000000    27.72000000
   H    -15.20000000   -30.02000000    27.82000000
   H    -14.62000000   -29.10000000    30.05000000
   H    -15.89000000   -30.34000000    30.03000000
   H    -16.15000000   -28.64000000    31.42000000
   N    -18.27000000   -28.84000000    28.30000000
   C    -19.69000000   -29.15000000    28.23000000
   C    -20.12000000   -30.33000000    29.09000000
   O    -20.42000000   -31.42000000    28.60000000
   C    -20.04000000   -29.37000000    26.77000000
   H    -18.14000000   -27.92000000    28.68000000
   H    -20.26000000   -28.27000000    28.52000000
   H    -19.48000000   -30.08000000    26.15000000
   H    -21.02000000   -29.85000000    26.71000000
   H    -20.22000000   -28.43000000    26.26000000
   N    -20.37000000   -30.13000000    30.38000000
   C    -19.78000000   -29.16000000    31.28000000
   C    -20.80000000   -28.34000000    32.06000000
   O    -21.93000000   -28.79000000    32.21000000
   C    -18.77000000   -29.85000000    32.19000000
   H    -20.93000000   -30.86000000    30.79000000
   H    -19.26000000   -28.36000000    30.75000000
   H    -19.31000000   -30.41000000    32.96000000
   H    -18.20000000   -30.64000000    31.71000000
   H    -18.08000000   -29.14000000    32.65000000
   N    -20.47000000   -27.22000000    32.70000000
   C    -19.37000000   -26.28000000    32.78000000
   C    -19.62000000   -24.83000000    32.38000000
   O    -18.77000000   -24.28000000    31.69000000
   C    -18.69000000   -26.37000000    34.14000000
   C    -19.48000000   -26.16000000    35.43000000
   C    -18.54000000   -25.99000000    36.61000000
   O    -18.42000000   -26.90000000    37.45000000
   O    -17.94000000   -24.91000000    36.84000000
   H    -21.23000000   -26.95000000    33.32000000
   H    -18.62000000   -26.54000000    32.04000000
   H    -17.76000000   -25.81000000    34.16000000
   H    -18.38000000   -27.41000000    34.08000000
   H    -20.10000000   -27.04000000    35.60000000
   H    -19.97000000   -25.19000000    35.32000000
   N    -20.74000000   -24.21000000    32.76000000
   C    -21.07000000   -22.81000000    32.54000000
   H    -22.00000000   -22.57100000    33.05500000
   H    -20.26900000   -22.18200000    32.92900000
   H    -21.19000000   -22.62800000    31.47200000
   H    -21.29000000   -24.76000000    33.40000000
  Ca     -7.39200000   -26.25200000    27.60000000
   O     -9.24200000   -27.49200000    25.99000000
   H     -9.41200000   -28.06200000    25.23000000
   H    -10.09200000   -27.39200000    26.41000000
   O     -8.95200000   -27.79200000    29.07000000
   H     -9.89200000   -27.75200000    29.26000000
   H     -8.63200000   -28.53200000    29.59000000
   O     -9.59200000   -24.88200000    28.12000000
   H    -10.34200000   -25.15200000    27.60000000
   H     -9.96200000   -24.52200000    28.93000000
   O     -7.38200000   -24.87200000    29.89000000
   H     -7.47200000   -23.95200000    29.67000000
   H     -7.01200000   -24.87200000    30.77000000
   O     -6.20200000   -27.56200000    29.50000000
   H     -5.68200000   -27.15200000    30.19000000
   H     -5.84200000   -28.44200000    29.42000000

Ca 1.00



