%chk=loop4.cluster136.chk
%nprocshared=20
%mem=10GB
%nosave
#b3lyp/svp scf=(tight,noincore,xqc) Test 
#IOP(5/87=12) Density=Current Pop=(MK,readradii) iop(6/33=2) iop(6/42=6)

loop4.cluster136 

   -3  1 
   C    104.18000000    22.79000000    59.76000000
   C    105.58000000    23.38000000    59.80000000
   O    105.88000000    24.33000000    59.09000000
   H    103.50100000    23.49900000    59.28600000
   H    104.19200000    21.86200000    59.18800000
   H    103.84100000    22.58700000    60.77600000
   N    106.45000000    22.79000000    60.63000000
   C    107.81000000    23.24000000    60.88000000
   C    107.99000000    24.70000000    61.29000000
   O    108.68000000    25.44000000    60.59000000
   C    108.74000000    22.81000000    59.75000000
   C    108.47000000    21.38000000    59.32000000
   O    107.86000000    21.19000000    58.24000000
   O    108.95000000    20.44000000    60.00000000
   H    106.07000000    22.08000000    61.23000000
   H    108.12000000    22.70000000    61.77000000
   H    109.77000000    22.81000000    60.12000000
   H    108.75000000    23.48000000    58.89000000
   N    107.45000000    25.05000000    62.45000000
   C    107.71000000    26.30000000    63.13000000
   C    108.06000000    25.97000000    64.57000000
   O    107.25000000    25.41000000    65.31000000
   C    106.50000000    27.23000000    63.06000000
   C    105.97000000    27.37000000    61.64000000
   C    106.92000000    28.55000000    63.71000000
   C    104.94000000    28.47000000    61.40000000
   H    107.01000000    24.29000000    62.97000000
   H    108.56000000    26.80000000    62.65000000
   H    105.71000000    26.95000000    63.76000000
   H    105.44000000    26.46000000    61.35000000
   H    106.81000000    27.46000000    60.96000000
   H    107.27000000    28.47000000    64.74000000
   H    107.64000000    29.11000000    63.10000000
   H    106.05000000    29.21000000    63.71000000
   H    104.41000000    28.22000000    60.49000000
   H    104.21000000    28.54000000    62.21000000
   H    105.53000000    29.35000000    61.12000000
   N    109.28000000    26.26000000    65.03000000
   C    110.32000000    26.99000000    64.34000000
   C    110.97000000    26.21000000    63.21000000
   O    111.44000000    26.84000000    62.26000000
   C    111.40000000    27.53000000    65.27000000
   C    110.89000000    28.39000000    66.42000000
   O    111.46000000    28.24000000    67.53000000
   O    110.07000000    29.31000000    66.23000000
   H    109.58000000    25.72000000    65.83000000
   H    109.90000000    27.86000000    63.83000000
   H    112.07000000    28.12000000    64.65000000
   H    111.95000000    26.69000000    65.70000000
   N    111.17000000    24.89000000    63.26000000
   C    111.77000000    24.14000000    62.18000000
   C    113.24000000    24.50000000    62.08000000
   O    114.03000000    24.37000000    63.02000000
   H    110.84000000    24.44000000    64.11000000
   H    111.19000000    24.38000000    61.28000000
   H    111.71000000    23.08000000    62.43000000
   N    113.61000000    24.91000000    60.86000000
   C    114.93000000    25.22000000    60.35000000
   C    114.94000000    26.32000000    59.30000000
   O    116.01000000    26.68000000    58.81000000
   C    115.51000000    23.96000000    59.72000000
   C    114.60000000    23.46000000    58.60000000
   O    114.87000000    22.41000000    57.98000000
   O    113.61000000    24.11000000    58.20000000
   H    112.90000000    24.67000000    60.19000000
   H    115.55000000    25.58000000    61.18000000
   H    115.60000000    23.21000000    60.50000000
   H    116.51000000    24.15000000    59.32000000
   N    113.78000000    26.79000000    58.84000000
   C    113.65000000    27.81000000    57.82000000
   C    113.58000000    27.28000000    56.39000000
   O    113.26000000    28.02000000    55.47000000
   H    112.91000000    26.40000000    59.18000000
   H    114.58000000    28.36000000    57.84000000
   H    112.83000000    28.53000000    57.94000000
   N    113.60000000    25.96000000    56.16000000
   C    113.78000000    25.29000000    54.89000000
   C    112.90000000    25.72000000    53.73000000
   O    113.35000000    26.34000000    52.77000000
   C    115.22000000    25.22000000    54.40000000
   C    116.21000000    24.56000000    55.35000000
   C    117.65000000    24.44000000    54.88000000
   N    117.84000000    23.71000000    53.77000000
   O    118.55000000    25.12000000    55.36000000
   H    113.78000000    25.40000000    56.98000000
   H    113.44000000    24.28000000    55.15000000
   H    115.56000000    26.23000000    54.14000000
   H    115.22000000    24.58000000    53.52000000
   H    115.87000000    23.57000000    55.65000000
   H    116.23000000    25.22000000    56.22000000
   H    117.05000000    23.19000000    53.44000000
   H    118.76000000    23.48000000    53.42000000
   N    111.59000000    25.42000000    53.76000000
   C    110.61000000    25.74000000    52.75000000
   C    110.56000000    24.78000000    51.57000000
   O    110.71000000    23.57000000    51.79000000
   C    109.20000000    25.87000000    53.29000000
   C    108.51000000    24.60000000    53.78000000
   C    109.13000000    26.93000000    54.39000000
   H    111.19000000    24.97000000    54.57000000
   H    110.84000000    26.74000000    52.37000000
   H    108.61000000    26.29000000    52.48000000
   H    107.45000000    24.85000000    53.85000000
   H    108.62000000    23.77000000    53.08000000
   H    108.84000000    24.32000000    54.78000000
   H    108.16000000    27.19000000    54.81000000
   H    109.76000000    26.59000000    55.21000000
   H    109.41000000    27.89000000    53.97000000
   N    110.32000000    25.26000000    50.35000000
   C    109.94000000    24.32000000    49.33000000
   C    108.46000000    23.98000000    49.35000000
   O    107.67000000    24.78000000    49.84000000
   C    110.40000000    24.89000000    47.99000000
   C    110.88000000    23.87000000    46.96000000
   N    111.82000000    24.35000000    46.14000000
   O    110.42000000    22.73000000    46.96000000
   H    110.07000000    26.24000000    50.27000000
   H    110.45000000    23.37000000    49.48000000
   H    111.32000000    25.45000000    48.13000000
   H    109.69000000    25.62000000    47.59000000
   H    112.29000000    25.22000000    46.34000000
   H    112.26000000    23.67000000    45.54000000
   N    108.17000000    22.74000000    48.96000000
   C    106.98000000    22.02000000    49.36000000
   C    107.23000000    20.54000000    49.61000000
   O    108.15000000    19.99000000    49.00000000
   C    105.78000000    22.22000000    48.44000000
   C    105.73000000    21.28000000    47.26000000
   C    104.97000000    20.12000000    47.39000000
   C    106.41000000    21.60000000    46.08000000
   C    104.88000000    19.23000000    46.32000000
   C    106.21000000    20.76000000    44.97000000
   C    105.45000000    19.58000000    45.08000000
   O    105.23000000    18.80000000    43.97000000
   H    108.95000000    22.19000000    48.61000000
   H    106.54000000    22.50000000    50.24000000
   H    105.77000000    23.25000000    48.08000000
   H    104.94000000    22.00000000    49.10000000
   H    104.48000000    19.90000000    48.33000000
   H    106.96000000    22.52000000    45.99000000
   H    104.29000000    18.32000000    46.34000000
   H    106.59000000    21.05000000    44.00000000
   H    106.01000000    18.81000000    43.41000000
   N    106.46000000    19.92000000    50.51000000
   C    106.52000000    18.49000000    50.73000000
   C    105.47000000    17.73000000    49.93000000
   O    105.75000000    16.88000000    49.09000000
   C    106.45000000    18.27000000    52.23000000
   C    107.79000000    18.03000000    52.93000000
   C    107.58000000    18.32000000    54.42000000
   O    107.77000000    19.47000000    54.86000000
   O    107.03000000    17.48000000    55.16000000
   H    105.88000000    20.48000000    51.12000000
   H    107.47000000    18.08000000    50.41000000
   H    105.85000000    17.37000000    52.34000000
   H    105.93000000    19.06000000    52.79000000
   H    108.57000000    18.68000000    52.53000000
   H    107.91000000    16.96000000    52.77000000
   N    104.16000000    18.00000000    50.04000000
   C    103.48000000    18.62000000    51.15000000
   C    102.35000000    19.54000000    50.70000000
   O    101.71000000    19.29000000    49.68000000
   C    102.97000000    17.56000000    52.12000000
   C    102.04000000    16.52000000    51.51000000
   C    102.58000000    15.50000000    50.52000000
   O    103.22000000    14.50000000    50.90000000
   O    102.44000000    15.70000000    49.30000000
   H    103.51000000    17.42000000    49.53000000
   H    104.21000000    19.29000000    51.62000000
   H    102.54000000    18.07000000    52.98000000
   H    103.83000000    17.03000000    52.52000000
   H    101.24000000    17.09000000    51.02000000
   H    101.65000000    15.97000000    52.37000000
   N    102.02000000    20.56000000    51.50000000
   C    100.85000000    21.41000000    51.56000000
   H    100.03000000    20.86600000    52.02900000
   H    101.07700000    22.30000000    52.14600000
   H    100.56100000    21.70300000    50.55100000
   H    102.66000000    20.78000000    52.24000000
  Ca    106.84000000    18.96000000    57.44000000
   O    104.94000000    19.97000000    56.04000000
   H    104.07000000    19.61000000    55.88000000
   H    104.97000000    20.77000000    55.52000000
   O    109.12000000    17.84000000    57.27000000
   H    109.81000000    18.05000000    57.90000000
   H    109.59000000    17.46000000    56.52000000
   O    107.32000000    18.54000000    60.18000000
   H    107.81000000    19.36000000    60.30000000
   H    106.99000000    18.34000000    61.05000000

Ca 1.00



