%chk=loop1.cluster84.chk
%nprocshared=20
%mem=10GB
%nosave
#b3lyp/svp scf=(tight,noincore,xqc) Test 
#IOP(5/87=12) Density=Current Pop=(MK,readradii) iop(6/33=2) iop(6/42=6)

loop1.cluster84 

   0  1 
   C     36.08000000    86.53000000   121.47000000
   C     36.72000000    85.93000000   122.71000000
   O     37.28000000    84.83000000   122.76000000
   H     35.18100000    87.07700000   121.75400000
   H     36.78300000    87.21100000   120.99100000
   H     35.81500000    85.73300000   120.77500000
   N     36.61000000    86.72000000   123.78000000
   C     37.23000000    86.43000000   125.06000000
   C     36.31000000    85.92000000   126.16000000
   O     36.63000000    85.92000000   127.34000000
   C     38.00000000    87.65000000   125.55000000
   C     37.17000000    88.93000000   125.57000000
   O     37.13000000    89.53000000   126.67000000
   O     36.49000000    89.36000000   124.61000000
   H     36.23000000    87.65000000   123.64000000
   H     38.00000000    85.68000000   124.91000000
   H     38.81000000    87.82000000   124.84000000
   H     38.42000000    87.46000000   126.53000000
   N     35.13000000    85.43000000   125.76000000
   C     33.89000000    85.26000000   126.49000000
   C     33.15000000    83.95000000   126.20000000
   O     32.28000000    83.89000000   125.34000000
   C     32.97000000    86.46000000   126.29000000
   C     33.56000000    87.72000000   126.92000000
   C     32.58000000    88.89000000   126.87000000
   C     33.23000000    90.23000000   127.21000000
   N     34.35000000    90.52000000   126.29000000
   H     35.02000000    85.55000000   124.76000000
   H     34.13000000    85.24000000   127.55000000
   H     32.01000000    86.20000000   126.73000000
   H     32.75000000    86.74000000   125.26000000
   H     34.40000000    87.91000000   126.25000000
   H     33.90000000    87.62000000   127.95000000
   H     31.72000000    88.81000000   127.54000000
   H     32.24000000    89.02000000   125.84000000
   H     33.66000000    90.18000000   128.21000000
   H     32.52000000    91.03000000   127.02000000
   H     34.69000000    91.47000000   126.36000000
   H     35.17000000    89.98000000   126.53000000
   H     34.20000000    90.33000000   125.31000000
   N     33.21000000    82.89000000   127.00000000
   C     34.02000000    82.59000000   128.16000000
   C     33.68000000    83.42000000   129.39000000
   O     32.92000000    84.38000000   129.24000000
   C     35.49000000    82.60000000   127.75000000
   C     35.83000000    82.01000000   126.40000000
   O     36.79000000    82.48000000   125.76000000
   O     35.16000000    81.01000000   126.04000000
   H     32.70000000    82.10000000   126.62000000
   H     33.86000000    81.53000000   128.41000000
   H     36.07000000    81.94000000   128.40000000
   H     35.95000000    83.57000000   127.96000000
   N     34.10000000    83.07000000   130.61000000
   C     35.17000000    82.18000000   131.01000000
   C     36.53000000    82.86000000   131.07000000
   O     36.66000000    84.06000000   130.85000000
   H     33.74000000    83.68000000   131.33000000
   H     35.17000000    81.28000000   130.40000000
   H     34.96000000    81.87000000   132.04000000
   N     37.66000000    82.16000000   131.24000000
   C     37.83000000    80.73000000   131.28000000
   C     38.96000000    80.29000000   130.35000000
   O     39.97000000    80.98000000   130.22000000
   C     38.15000000    80.19000000   132.68000000
   C     37.40000000    78.90000000   133.02000000
   O     36.31000000    79.02000000   133.61000000
   O     38.04000000    77.83000000   132.89000000
   H     38.50000000    82.72000000   131.27000000
   H     36.96000000    80.20000000   130.90000000
   H     37.64000000    80.91000000   133.31000000
   H     39.18000000    80.21000000   133.02000000
   N     38.86000000    79.10000000   129.77000000
   C     39.92000000    78.53000000   128.95000000
   C     40.11000000    79.24000000   127.62000000
   O     39.22000000    79.98000000   127.21000000
   H     37.96000000    78.65000000   129.78000000
   H     39.78000000    77.45000000   128.89000000
   H     40.88000000    78.55000000   129.47000000
   N     41.23000000    79.05000000   126.92000000
   C     41.66000000    79.66000000   125.67000000
   C     40.75000000    79.30000000   124.51000000
   O     39.99000000    78.34000000   124.63000000
   C     43.05000000    79.27000000   125.18000000
   C     43.24000000    77.78000000   124.91000000
   O     43.95000000    79.59000000   126.22000000
   H     41.83000000    78.31000000   127.24000000
   H     41.71000000    80.74000000   125.84000000
   H     43.38000000    79.84000000   124.31000000
   H     44.73000000    79.03000000   126.16000000
   H     42.95000000    77.56000000   123.88000000
   H     44.28000000    77.46000000   125.03000000
   H     42.66000000    77.19000000   125.63000000
   N     40.85000000    80.02000000   123.38000000
   C     40.31000000    79.67000000   122.08000000
   C     41.43000000    79.13000000   121.21000000
   O     42.30000000    79.74000000   120.60000000
   C     39.57000000    80.92000000   121.60000000
   C     38.91000000    80.68000000   120.25000000
   C     40.55000000    82.08000000   121.54000000
   C     38.04000000    81.83000000   119.75000000
   H     41.35000000    80.88000000   123.52000000
   H     39.52000000    78.93000000   122.22000000
   H     38.69000000    81.10000000   122.22000000
   H     38.18000000    79.86000000   120.29000000
   H     39.66000000    80.49000000   119.48000000
   H     41.03000000    82.24000000   122.51000000
   H     41.14000000    82.06000000   120.63000000
   H     39.96000000    83.00000000   121.52000000
   H     38.65000000    82.68000000   119.44000000
   H     37.54000000    81.49000000   118.85000000
   H     37.28000000    82.08000000   120.49000000
   N     41.26000000    77.83000000   120.97000000
   C     41.82000000    77.08000000   119.86000000
   C     40.81000000    76.45000000   118.90000000
   O     41.14000000    75.85000000   117.89000000
   C     42.81000000    76.01000000   120.31000000
   C     42.21000000    74.81000000   121.05000000
   O     43.76000000    76.72000000   121.07000000
   H     40.62000000    77.31000000   121.56000000
   H     42.36000000    77.80000000   119.26000000
   H     43.28000000    75.48000000   119.48000000
   H     44.15000000    77.49000000   120.65000000
   H     41.66000000    74.17000000   120.35000000
   H     43.08000000    74.24000000   121.38000000
   H     41.64000000    75.09000000   121.93000000
   N     39.53000000    76.64000000   119.21000000
   C     38.30000000    76.27000000   118.53000000
   C     37.99000000    74.79000000   118.60000000
   O     38.63000000    74.01000000   119.31000000
   C     38.32000000    76.85000000   117.12000000
   C     38.48000000    78.37000000   116.99000000
   O     37.13000000    76.50000000   116.45000000
   H     39.38000000    77.27000000   119.99000000
   H     37.46000000    76.80000000   119.00000000
   H     39.11000000    76.44000000   116.50000000
   H     37.22000000    77.05000000   115.67000000
   H     39.01000000    78.49000000   116.05000000
   H     37.53000000    78.91000000   116.97000000
   H     39.14000000    78.80000000   117.74000000
   N     36.87000000    74.31000000   118.05000000
   C     36.55000000    72.91000000   117.90000000
   C     35.35000000    72.29000000   118.61000000
   O     35.44000000    71.09000000   118.86000000
   C     36.37000000    72.65000000   116.41000000
   C     37.72000000    72.76000000   115.71000000
   C     37.94000000    71.70000000   114.64000000
   C     39.26000000    71.64000000   113.86000000
   N     39.72000000    72.97000000   113.43000000
   H     36.31000000    74.87000000   117.42000000
   H     37.34000000    72.27000000   118.29000000
   H     35.64000000    73.34000000   115.99000000
   H     36.00000000    71.63000000   116.26000000
   H     38.51000000    72.74000000   116.46000000
   H     37.73000000    73.64000000   115.07000000
   H     37.18000000    71.78000000   113.87000000
   H     37.87000000    70.73000000   115.13000000
   H     39.18000000    70.96000000   113.01000000
   H     40.01000000    71.19000000   114.50000000
   H     39.24000000    73.29000000   112.60000000
   H     39.63000000    73.65000000   114.18000000
   H     40.70000000    72.91000000   113.21000000
   N     34.32000000    73.00000000   119.07000000
   C     33.86000000    74.37000000   119.22000000
   C     33.74000000    75.09000000   117.88000000
   O     33.95000000    76.28000000   117.69000000
   C     34.66000000    75.15000000   120.26000000
   C     34.49000000    74.77000000   121.73000000
   C     35.19000000    75.78000000   122.63000000
   O     36.42000000    75.99000000   122.49000000
   O     34.53000000    76.53000000   123.38000000
   H     33.66000000    72.31000000   119.39000000
   H     32.82000000    74.39000000   119.56000000
   H     34.35000000    76.19000000   120.19000000
   H     35.72000000    75.17000000   120.02000000
   H     34.94000000    73.79000000   121.90000000
   H     33.41000000    74.69000000   121.85000000
   N     33.32000000    74.39000000   116.82000000
   C     32.97000000    74.88000000   115.50000000
   H     32.13500000    75.57600000   115.58100000
   H     33.82700000    75.39100000   115.06200000
   H     32.68300000    74.04200000   114.86500000
   H     33.05000000    73.43000000   116.97000000
  Ca     35.08000000    78.49000000   125.21200000
   O     32.75000000    79.45000000   124.67200000
   H     32.62000000    80.37000000   124.44200000
   H     31.94000000    79.19000000   125.10200000
   O     35.58000000    79.84000000   123.05200000
   H     35.82000000    80.77000000   123.10200000
   H     35.80000000    79.59000000   122.15200000
   O     33.78000000    78.02000000   127.50200000
   H     33.32000000    78.54000000   128.15200000
   H     33.67000000    77.11000000   127.79200000
   O     35.91000000    75.99000000   126.10200000
   H     35.91000000    75.67000000   127.00200000
   H     36.39000000    75.32000000   125.61200000
   O     37.38000000    77.90000000   124.19200000
   H     38.33000000    78.02000000   124.21200000
   H     37.24000000    77.21000000   123.54200000
   O     36.80000000    78.71000000   127.31200000
   H     37.46000000    79.40000000   127.27200000
   H     37.11000000    78.13000000   128.00200000

Ca 1.00



