%chk=loop4.cluster18.chk
%nprocshared=20
%mem=10GB
%nosave
#b3lyp/svp scf=(tight,noincore,xqc) Test 
#IOP(5/87=12) Density=Current Pop=(MK,readradii) iop(6/33=2) iop(6/42=6)

loop4.cluster18 

   -3  1 
   C     76.76000000    23.75000000    61.31000000
   C     78.00000000    23.23000000    62.01000000
   O     79.08000000    23.73000000    61.72000000
   H     75.98000000    23.93900000    62.04700000
   H     76.99800000    24.67700000    60.78900000
   H     76.40900000    23.00800000    60.59200000
   N     77.88000000    22.29000000    62.95000000
   C     78.97000000    21.80000000    63.77000000
   C     79.65000000    22.86000000    64.63000000
   O     80.87000000    22.92000000    64.73000000
   C     79.87000000    20.88000000    62.96000000
   C     79.09000000    19.98000000    62.01000000
   O     79.63000000    19.74000000    60.91000000
   O     77.98000000    19.49000000    62.28000000
   H     77.01000000    21.81000000    63.12000000
   H     78.48000000    21.18000000    64.52000000
   H     80.50000000    20.34000000    63.68000000
   H     80.59000000    21.46000000    62.38000000
   N     78.80000000    23.64000000    65.31000000
   C     79.14000000    24.69000000    66.24000000
   C     78.41000000    24.38000000    67.54000000
   O     77.19000000    24.30000000    67.64000000
   C     78.74000000    26.08000000    65.78000000
   C     79.19000000    26.53000000    64.39000000
   C     79.45000000    27.02000000    66.75000000
   C     78.81000000    27.95000000    63.96000000
   H     77.81000000    23.43000000    65.37000000
   H     80.22000000    24.67000000    66.41000000
   H     77.66000000    26.15000000    65.86000000
   H     78.87000000    25.84000000    63.61000000
   H     80.27000000    26.45000000    64.24000000
   H     79.30000000    28.07000000    66.48000000
   H     79.16000000    26.95000000    67.80000000
   H     80.51000000    26.80000000    66.72000000
   H     78.86000000    28.03000000    62.87000000
   H     77.79000000    28.20000000    64.24000000
   H     79.51000000    28.64000000    64.44000000
   N     79.09000000    24.22000000    68.68000000
   C     80.48000000    24.44000000    69.03000000
   C     81.39000000    23.25000000    68.71000000
   O     82.60000000    23.37000000    68.53000000
   C     80.58000000    24.95000000    70.46000000
   C     79.81000000    26.23000000    70.76000000
   O     78.63000000    26.41000000    70.40000000
   O     80.46000000    27.12000000    71.34000000
   H     78.40000000    24.28000000    69.42000000
   H     80.70000000    25.25000000    68.34000000
   H     81.64000000    25.09000000    70.66000000
   H     80.36000000    24.14000000    71.16000000
   N     80.74000000    22.09000000    68.75000000
   C     81.28000000    20.84000000    68.24000000
   C     82.50000000    20.34000000    68.99000000
   O     82.56000000    20.41000000    70.22000000
   H     79.77000000    22.06000000    69.05000000
   H     81.54000000    21.08000000    67.21000000
   H     80.55000000    20.04000000    68.17000000
   N     83.39000000    19.68000000    68.25000000
   C     84.71000000    19.26000000    68.69000000
   C     85.91000000    20.02000000    68.14000000
   O     87.03000000    19.79000000    68.57000000
   C     84.77000000    17.76000000    68.39000000
   C     85.04000000    17.45000000    66.92000000
   O     84.75000000    18.29000000    66.04000000
   O     85.68000000    16.41000000    66.64000000
   H     83.33000000    19.55000000    67.25000000
   H     84.74000000    19.33000000    69.77000000
   H     83.79000000    17.35000000    68.62000000
   H     85.51000000    17.17000000    68.92000000
   N     85.72000000    20.97000000    67.22000000
   C     86.81000000    21.68000000    66.59000000
   C     87.13000000    21.21000000    65.18000000
   O     87.90000000    21.86000000    64.48000000
   H     84.76000000    21.08000000    66.90000000
   H     87.70000000    21.53000000    67.21000000
   H     86.64000000    22.75000000    66.66000000
   N     86.53000000    20.08000000    64.78000000
   C     86.88000000    19.37000000    63.57000000
   C     86.89000000    20.24000000    62.32000000
   O     87.91000000    20.43000000    61.67000000
   C     88.23000000    18.69000000    63.79000000
   C     88.38000000    17.58000000    64.83000000
   C     89.83000000    17.13000000    64.97000000
   N     90.12000000    16.33000000    66.01000000
   O     90.76000000    17.48000000    64.26000000
   H     85.96000000    19.61000000    65.47000000
   H     86.13000000    18.58000000    63.48000000
   H     88.93000000    19.50000000    63.96000000
   H     88.32000000    18.24000000    62.80000000
   H     87.71000000    16.80000000    64.46000000
   H     88.03000000    18.01000000    65.77000000
   H     89.42000000    16.22000000    66.73000000
   H     91.12000000    16.27000000    66.15000000
   N     85.75000000    20.85000000    61.97000000
   C     85.64000000    21.66000000    60.78000000
   C     85.68000000    20.88000000    59.47000000
   O     85.41000000    19.68000000    59.53000000
   C     84.32000000    22.42000000    60.82000000
   C     83.13000000    21.51000000    61.10000000
   C     84.52000000    23.40000000    61.96000000
   H     84.87000000    20.66000000    62.43000000
   H     86.50000000    22.33000000    60.77000000
   H     84.29000000    23.04000000    59.92000000
   H     82.99000000    20.63000000    60.47000000
   H     83.12000000    21.18000000    62.14000000
   H     82.32000000    22.20000000    60.84000000
   H     85.42000000    24.01000000    61.96000000
   H     83.72000000    24.14000000    61.90000000
   H     84.58000000    22.92000000    62.93000000
   N     85.92000000    21.48000000    58.30000000
   C     86.04000000    20.86000000    57.00000000
   C     85.24000000    21.72000000    56.04000000
   O     85.60000000    22.86000000    55.74000000
   C     87.50000000    20.66000000    56.62000000
   C     87.71000000    19.83000000    55.36000000
   N     86.75000000    18.99000000    54.97000000
   O     88.66000000    20.15000000    54.65000000
   H     86.11000000    22.47000000    58.38000000
   H     85.63000000    19.88000000    57.24000000
   H     87.99000000    20.26000000    57.51000000
   H     87.96000000    21.61000000    56.34000000
   H     85.97000000    18.65000000    55.51000000
   H     86.84000000    18.58000000    54.05000000
   N     84.23000000    21.14000000    55.38000000
   C     83.51000000    21.83000000    54.32000000
   C     82.09000000    21.43000000    53.94000000
   O     81.75000000    21.50000000    52.76000000
   C     84.41000000    21.91000000    53.09000000
   C     84.36000000    23.25000000    52.39000000
   C     84.99000000    24.38000000    52.92000000
   C     83.63000000    23.34000000    51.20000000
   C     85.01000000    25.58000000    52.19000000
   C     83.75000000    24.50000000    50.42000000
   C     84.37000000    25.65000000    50.94000000
   O     84.58000000    26.76000000    50.18000000
   H     84.09000000    20.14000000    55.42000000
   H     83.50000000    22.89000000    54.58000000
   H     84.10000000    21.13000000    52.40000000
   H     85.45000000    21.79000000    53.39000000
   H     85.50000000    24.34000000    53.88000000
   H     83.30000000    22.40000000    50.79000000
   H     85.54000000    26.47000000    52.50000000
   H     83.37000000    24.56000000    49.41000000
   H     84.07000000    26.66000000    49.37000000
   N     81.30000000    20.89000000    54.86000000
   C     79.95000000    20.46000000    54.55000000
   C     78.99000000    21.56000000    54.11000000
   O     78.22000000    21.27000000    53.20000000
   C     79.38000000    19.73000000    55.76000000
   C     80.10000000    18.40000000    55.97000000
   C     79.76000000    17.73000000    57.29000000
   O     79.40000000    18.46000000    58.23000000
   O     80.17000000    16.56000000    57.47000000
   H     81.61000000    20.94000000    55.82000000
   H     80.00000000    19.78000000    53.70000000
   H     78.35000000    19.43000000    55.58000000
   H     79.37000000    20.39000000    56.63000000
   H     81.18000000    18.55000000    55.88000000
   H     79.80000000    17.76000000    55.14000000
   N     79.04000000    22.82000000    54.54000000
   C     79.58000000    23.29000000    55.80000000
   C     80.77000000    24.23000000    55.64000000
   O     81.33000000    24.50000000    54.58000000
   C     78.45000000    24.02000000    56.51000000
   C     77.17000000    23.20000000    56.62000000
   C     77.27000000    21.97000000    57.51000000
   O     76.64000000    20.93000000    57.24000000
   O     77.93000000    22.09000000    58.57000000
   H     78.63000000    23.51000000    53.93000000
   H     79.89000000    22.54000000    56.53000000
   H     78.27000000    25.03000000    56.16000000
   H     78.87000000    24.22000000    57.50000000
   H     76.69000000    22.96000000    55.67000000
   H     76.44000000    23.81000000    57.14000000
   N     81.24000000    24.71000000    56.80000000
   C     82.31000000    25.66000000    56.99000000
   H     83.16900000    25.36400000    56.38800000
   H     81.97600000    26.65100000    56.68200000
   H     82.59400000    25.68200000    58.04200000
   H     80.73000000    24.40000000    57.61000000
  Ca     77.44000000    19.55000000    59.39000000
   O     77.51000000    16.80000000    60.20000000
   H     77.38000000    16.01000000    59.68000000
   H     76.71000000    16.89000000    60.71000000
   O     76.61000000    17.84000000    56.98000000
   H     76.19000000    16.99000000    57.14000000
   H     75.97000000    18.34000000    56.48000000

Ca 1.00



