%chk=loop1.cluster140.chk
%nprocshared=20
%mem=10GB
%nosave
#b3lyp/svp scf=(tight,noincore,xqc) Test 
#IOP(5/87=12) Density=Current Pop=(MK,readradii) iop(6/33=2) iop(6/42=6)

loop1.cluster140 

   0  1 
   C     96.99000000   114.63000000    74.00000000
   C     95.80000000   115.23000000    73.28000000
   O     94.70000000   115.28000000    73.83000000
   H     97.80100000   115.35800000    74.03000000
   H     96.70300000   114.36400000    75.01700000
   H     97.32400000   113.73700000    73.47100000
   N     95.89000000   115.57000000    71.99000000
   C     94.99000000   116.47000000    71.30000000
   C     94.15000000   115.84000000    70.19000000
   O     94.48000000   114.81000000    69.61000000
   C     95.73000000   117.67000000    70.72000000
   C     96.61000000   118.37000000    71.75000000
   O     96.20000000   118.62000000    72.91000000
   O     97.72000000   118.79000000    71.36000000
   H     96.80000000   115.36000000    71.59000000
   H     94.33000000   116.81000000    72.10000000
   H     95.00000000   118.41000000    70.41000000
   H     96.46000000   117.33000000    69.99000000
   N     93.11000000   116.57000000    69.77000000
   C     92.24000000   116.16000000    68.69000000
   C     92.75000000   116.41000000    67.27000000
   O     92.16000000   116.00000000    66.28000000
   C     90.83000000   116.67000000    68.97000000
   C     90.36000000   116.45000000    70.41000000
   C     88.93000000   116.92000000    70.65000000
   C     88.62000000   116.99000000    72.14000000
   N     88.70000000   115.67000000    72.79000000
   H     92.99000000   117.52000000    70.08000000
   H     92.10000000   115.09000000    68.85000000
   H     90.10000000   116.29000000    68.26000000
   H     90.77000000   117.72000000    68.71000000
   H     90.93000000   117.07000000    71.09000000
   H     90.47000000   115.40000000    70.68000000
   H     88.19000000   116.32000000    70.11000000
   H     88.83000000   117.93000000    70.25000000
   H     87.64000000   117.43000000    72.33000000
   H     89.38000000   117.70000000    72.48000000
   H     88.61000000   115.79000000    73.79000000
   H     87.88000000   115.15000000    72.51000000
   H     89.52000000   115.12000000    72.56000000
   N     93.86000000   117.14000000    67.10000000
   C     94.47000000   117.55000000    65.85000000
   C     95.96000000   117.76000000    66.07000000
   O     96.37000000   117.95000000    67.21000000
   C     93.85000000   118.86000000    65.37000000
   C     93.66000000   118.92000000    63.86000000
   O     93.05000000   119.92000000    63.42000000
   O     94.10000000   118.05000000    63.07000000
   H     94.25000000   117.36000000    68.00000000
   H     94.41000000   116.76000000    65.10000000
   H     94.54000000   119.71000000    65.45000000
   H     92.92000000   119.01000000    65.91000000
   N     96.72000000   118.01000000    65.00000000
   C     98.13000000   118.35000000    65.05000000
   C     98.97000000   118.22000000    63.79000000
   O     98.80000000   117.27000000    63.03000000
   H     96.34000000   118.00000000    64.06000000
   H     98.54000000   117.66000000    65.79000000
   H     98.20000000   119.37000000    65.41000000
   N     99.85000000   119.21000000    63.61000000
   C    100.87000000   119.28000000    62.59000000
   C    102.23000000   119.46000000    63.25000000
   O    102.34000000   120.22000000    64.22000000
   C    100.68000000   120.38000000    61.55000000
   C     99.35000000   120.42000000    60.82000000
   O     98.38000000   121.01000000    61.34000000
   O     99.19000000   119.79000000    59.74000000
   H     99.79000000   120.01000000    64.23000000
   H    100.92000000   118.40000000    61.94000000
   H    101.38000000   120.18000000    60.74000000
   H    100.77000000   121.32000000    62.10000000
   N    103.21000000   118.73000000    62.71000000
   C    104.56000000   118.89000000    63.22000000
   C    104.93000000   118.20000000    64.52000000
   O    106.09000000   118.25000000    64.91000000
   H    102.92000000   117.96000000    62.13000000
   H    104.83000000   119.93000000    63.40000000
   H    105.23000000   118.60000000    62.40000000
   N    103.96000000   117.64000000    65.26000000
   C    104.03000000   117.18000000    66.63000000
   C    104.68000000   118.19000000    67.57000000
   O    104.66000000   119.40000000    67.38000000
   C    102.61000000   116.83000000    67.09000000
   C    101.54000000   117.91000000    67.08000000
   O    102.12000000   115.85000000    66.21000000
   H    103.06000000   117.59000000    64.81000000
   H    104.62000000   116.26000000    66.63000000
   H    102.52000000   116.30000000    68.04000000
   H    101.37000000   115.40000000    66.60000000
   H    100.70000000   117.43000000    67.59000000
   H    102.01000000   118.77000000    67.55000000
   H    101.16000000   118.06000000    66.07000000
   N    105.31000000   117.71000000    68.64000000
   C    105.70000000   118.44000000    69.83000000
   C    107.17000000   118.39000000    70.21000000
   O    107.56000000   118.93000000    71.24000000
   C    104.88000000   117.83000000    70.97000000
   C    105.01000000   116.32000000    71.11000000
   C    103.40000000   118.12000000    70.79000000
   C    104.39000000   115.63000000    72.33000000
   H    105.43000000   116.71000000    68.76000000
   H    105.44000000   119.49000000    69.69000000
   H    105.19000000   118.38000000    71.86000000
   H    106.04000000   115.96000000    71.10000000
   H    104.53000000   115.85000000    70.26000000
   H    103.25000000   119.18000000    70.60000000
   H    103.04000000   117.45000000    70.01000000
   H    102.82000000   117.83000000    71.67000000
   H    104.99000000   115.93000000    73.19000000
   H    103.33000000   115.84000000    72.48000000
   H    104.43000000   114.55000000    72.16000000
   N    108.06000000   117.94000000    69.32000000
   C    109.50000000   117.97000000    69.50000000
   C    110.17000000   117.07000000    68.48000000
   O    109.74000000   117.06000000    67.33000000
   C    109.99000000   119.41000000    69.34000000
   C    111.44000000   119.52000000    69.79000000
   O    110.07000000   119.91000000    68.02000000
   H    107.62000000   117.57000000    68.49000000
   H    109.77000000   117.60000000    70.49000000
   H    109.37000000   120.14000000    69.86000000
   H    109.15000000   120.00000000    67.76000000
   H    111.76000000   120.55000000    69.61000000
   H    111.49000000   119.33000000    70.86000000
   H    112.14000000   118.84000000    69.31000000
   N    111.05000000   116.14000000    68.88000000
   C    111.84000000   115.27000000    68.04000000
   C    111.86000000   113.83000000    68.53000000
   O    111.97000000   112.91000000    67.73000000
   C    113.27000000   115.76000000    67.80000000
   C    114.17000000   116.07000000    68.99000000
   O    113.08000000   116.85000000    66.93000000
   H    111.20000000   116.24000000    69.88000000
   H    111.38000000   115.17000000    67.06000000
   H    113.81000000   114.99000000    67.25000000
   H    112.14000000   116.90000000    66.78000000
   H    115.09000000   116.60000000    68.72000000
   H    113.59000000   116.66000000    69.70000000
   H    114.46000000   115.14000000    69.48000000
   N    111.82000000   113.61000000    69.85000000
   C    112.01000000   112.35000000    70.53000000
   C    110.83000000   111.39000000    70.58000000
   O    109.65000000   111.73000000    70.49000000
   C    112.67000000   112.54000000    71.89000000
   C    111.61000000   112.70000000    72.98000000
   C    112.36000000   112.99000000    74.28000000
   C    111.63000000   112.90000000    75.61000000
   N    111.35000000   111.51000000    76.02000000
   H    111.86000000   114.47000000    70.37000000
   H    112.67000000   111.73000000    69.91000000
   H    113.35000000   113.37000000    71.70000000
   H    113.33000000   111.76000000    72.27000000
   H    111.14000000   111.72000000    73.06000000
   H    110.88000000   113.47000000    72.72000000
   H    112.66000000   114.04000000    74.22000000
   H    113.31000000   112.46000000    74.39000000
   H    110.64000000   113.35000000    75.57000000
   H    112.22000000   113.42000000    76.37000000
   H    110.81000000   110.89000000    75.43000000
   H    112.18000000   110.99000000    76.23000000
   H    110.79000000   111.52000000    76.86000000
   N    111.18000000   110.12000000    70.82000000
   C    110.23000000   109.10000000    71.20000000
   C    109.35000000   108.83000000    69.98000000
   O    109.76000000   108.62000000    68.84000000
   C    111.00000000   107.89000000    71.71000000
   C    111.68000000   108.22000000    73.04000000
   C    110.72000000   108.37000000    74.21000000
   O    110.13000000   109.43000000    74.52000000
   O    110.45000000   107.36000000    74.90000000
   H    112.16000000   109.87000000    70.79000000
   H    109.56000000   109.46000000    71.99000000
   H    111.84000000   107.62000000    71.07000000
   H    110.37000000   107.03000000    71.93000000
   H    112.29000000   109.09000000    72.78000000
   H    112.34000000   107.42000000    73.38000000
   N    108.04000000   108.62000000    70.16000000
   C    107.31000000   108.44000000    71.39000000
   H    106.31400000   108.05700000    71.16800000
   H    107.83800000   107.72900000    72.02600000
   H    107.22500000   109.39600000    71.90600000
   H    107.59000000   108.81000000    69.27000000
  Ca     92.37000000   118.77600000    61.01000000
   O     91.53000000   117.14600000    62.82000000
   H     90.68000000   117.21600000    63.26000000
   H     92.08000000   116.66600000    63.43000000
   O     92.73000000   118.59600000    58.47000000
   H     93.10000000   119.09600000    57.75000000
   H     92.68000000   117.69600000    58.14000000
   O     92.20000000   121.54600000    60.34000000
   H     92.58000000   121.79600000    59.50000000
   H     91.93000000   122.36600000    60.74000000
   O     93.75000000   116.44600000    60.72000000
   H     93.16000000   115.70600000    60.61000000
   H     94.63000000   116.05600000    60.68000000
   O     90.21000000   117.66600000    60.12000000
   H     89.34000000   118.08600000    60.09000000
   H     90.07000000   116.80600000    59.74000000
   O     94.92000000   119.44600000    60.59000000
   H     95.48000000   119.47600000    61.36000000
   H     95.49000000   119.10600000    59.90000000
   O     90.35000000   119.86600000    62.09000000
   H     89.93000000   119.30600000    62.74000000
   H     89.71000000   120.53600000    61.88000000

Ca 1.00



