%chk=loop1.cluster126.chk
%nprocshared=20
%mem=10GB
%nosave
#b3lyp/svp scf=(tight,noincore,xqc) Test 
#IOP(5/87=12) Density=Current Pop=(MK,readradii) iop(6/33=2) iop(6/42=6)

loop1.cluster126 

   0  1 
   C     44.97000000    -7.37000000    28.20000000
   C     45.44000000    -8.23000000    29.37000000
   O     45.66000000    -9.44000000    29.24000000
   H     44.08800000    -6.80300000    28.49800000
   H     45.76400000    -6.68100000    27.91300000
   H     44.72100000    -8.01100000    27.35400000
   N     45.49000000    -7.63000000    30.55000000
   C     45.86000000    -8.26000000    31.80000000
   C     44.71000000    -8.90000000    32.58000000
   O     44.94000000    -9.23000000    33.74000000
   C     46.68000000    -7.33000000    32.69000000
   C     45.96000000    -6.05000000    33.06000000
   O     45.95000000    -5.11000000    32.23000000
   O     45.40000000    -5.88000000    34.16000000
   H     45.26000000    -6.65000000    30.66000000
   H     46.54000000    -9.10000000    31.66000000
   H     47.68000000    -7.24000000    32.25000000
   H     46.83000000    -7.79000000    33.67000000
   N     43.46000000    -8.91000000    32.10000000
   C     42.23000000    -9.22000000    32.80000000
   C     41.41000000   -10.31000000    32.11000000
   O     40.43000000    -9.98000000    31.45000000
   C     41.44000000    -7.93000000    32.97000000
   C     42.03000000    -6.88000000    33.90000000
   C     41.15000000    -5.64000000    33.92000000
   C     41.81000000    -4.44000000    34.61000000
   N     43.12000000    -4.18000000    34.00000000
   H     43.31000000    -8.60000000    31.15000000
   H     42.50000000    -9.68000000    33.75000000
   H     40.45000000    -8.20000000    33.35000000
   H     41.28000000    -7.55000000    31.96000000
   H     43.04000000    -6.70000000    33.53000000
   H     42.19000000    -7.20000000    34.93000000
   H     40.34000000    -5.84000000    34.61000000
   H     40.79000000    -5.47000000    32.90000000
   H     41.80000000    -4.59000000    35.69000000
   H     41.26000000    -3.51000000    34.47000000
   H     43.07000000    -4.03000000    33.01000000
   H     43.57000000    -3.37000000    34.41000000
   H     43.79000000    -4.93000000    34.11000000
   N     41.67000000   -11.62000000    32.22000000
   C     42.87000000   -12.36000000    32.56000000
   C     43.25000000   -12.39000000    34.03000000
   O     42.57000000   -11.83000000    34.88000000
   C     43.94000000   -11.97000000    31.55000000
   C     44.60000000   -13.16000000    30.85000000
   O     45.84000000   -13.14000000    30.73000000
   O     43.90000000   -14.08000000    30.38000000
   H     40.95000000   -12.19000000    31.79000000
   H     42.63000000   -13.41000000    32.39000000
   H     44.82000000   -11.53000000    32.01000000
   H     43.55000000   -11.38000000    30.72000000
   N     44.29000000   -13.17000000    34.35000000
   C     45.32000000   -13.93000000    33.67000000
   C     46.26000000   -14.51000000    34.71000000
   O     45.83000000   -14.62000000    35.85000000
   H     44.45000000   -13.23000000    35.35000000
   H     45.94000000   -13.21000000    33.13000000
   H     44.88000000   -14.72000000    33.06000000
   N     47.49000000   -14.94000000    34.38000000
   C     48.14000000   -14.84000000    33.09000000
   C     48.73000000   -13.45000000    32.92000000
   O     48.48000000   -12.77000000    31.93000000
   C     49.07000000   -15.99000000    32.71000000
   C     49.66000000   -15.96000000    31.31000000
   O     50.44000000   -16.91000000    31.05000000
   O     49.57000000   -14.94000000    30.59000000
   H     48.00000000   -15.39000000    35.12000000
   H     47.31000000   -14.94000000    32.38000000
   H     48.61000000   -16.97000000    32.84000000
   H     49.92000000   -15.93000000    33.39000000
   N     49.65000000   -13.08000000    33.82000000
   C     50.21000000   -11.75000000    33.92000000
   C     51.14000000   -11.24000000    32.83000000
   O     51.39000000   -10.04000000    32.78000000
   H     49.90000000   -13.72000000    34.56000000
   H     50.73000000   -11.72000000    34.88000000
   H     49.48000000   -10.95000000    34.01000000
   N     51.78000000   -12.14000000    32.08000000
   C     52.53000000   -11.80000000    30.88000000
   C     51.75000000   -11.47000000    29.62000000
   O     50.64000000   -11.98000000    29.49000000
   C     53.61000000   -12.87000000    30.70000000
   C     53.07000000   -14.27000000    30.43000000
   O     54.32000000   -13.02000000    31.91000000
   H     51.73000000   -13.11000000    32.36000000
   H     53.13000000   -10.93000000    31.11000000
   H     54.23000000   -12.56000000    29.86000000
   H     53.76000000   -13.52000000    32.51000000
   H     52.72000000   -14.40000000    29.41000000
   H     53.82000000   -15.06000000    30.43000000
   H     52.25000000   -14.49000000    31.12000000
   N     52.27000000   -10.65000000    28.70000000
   C     51.74000000   -10.25000000    27.41000000
   C     52.79000000   -10.27000000    26.31000000
   O     53.33000000    -9.23000000    25.92000000
   C     51.01000000    -8.91000000    27.46000000
   C     50.15000000    -8.57000000    26.25000000
   C     51.79000000    -7.75000000    28.08000000
   C     48.81000000    -9.29000000    26.16000000
   H     53.14000000   -10.19000000    28.93000000
   H     50.95000000   -10.97000000    27.18000000
   H     50.25000000    -9.07000000    28.22000000
   H     50.75000000    -8.94000000    25.41000000
   H     50.13000000    -7.51000000    26.03000000
   H     51.12000000    -6.89000000    28.16000000
   H     52.22000000    -7.94000000    29.06000000
   H     52.64000000    -7.53000000    27.43000000
   H     48.42000000    -9.17000000    25.15000000
   H     48.93000000   -10.33000000    26.47000000
   H     48.08000000    -8.96000000    26.91000000
   N     53.40000000   -11.43000000    26.03000000
   C     54.54000000   -11.63000000    25.17000000
   C     54.06000000   -12.14000000    23.81000000
   O     54.80000000   -12.17000000    22.83000000
   C     55.56000000   -12.60000000    25.75000000
   C     55.19000000   -14.03000000    26.13000000
   O     56.16000000   -12.14000000    26.94000000
   H     52.94000000   -12.24000000    26.43000000
   H     55.03000000   -10.66000000    25.08000000
   H     56.30000000   -12.61000000    24.95000000
   H     56.18000000   -11.18000000    26.84000000
   H     56.04000000   -14.45000000    26.66000000
   H     54.31000000   -13.98000000    26.77000000
   H     55.17000000   -14.65000000    25.23000000
   N     52.81000000   -12.60000000    23.75000000
   C     52.19000000   -13.41000000    22.72000000
   C     52.75000000   -14.83000000    22.73000000
   O     53.87000000   -15.11000000    23.14000000
   C     52.19000000   -12.69000000    21.37000000
   C     51.37000000   -11.41000000    21.48000000
   O     51.62000000   -13.48000000    20.36000000
   H     52.21000000   -12.18000000    24.45000000
   H     51.16000000   -13.58000000    23.03000000
   H     53.19000000   -12.38000000    21.08000000
   H     51.63000000   -13.00000000    19.53000000
   H     51.29000000   -10.92000000    20.51000000
   H     50.34000000   -11.61000000    21.77000000
   H     51.80000000   -10.77000000    22.26000000
   N     51.91000000   -15.75000000    22.25000000
   C     52.11000000   -17.17000000    22.03000000
   C     51.09000000   -18.11000000    22.64000000
   O     51.45000000   -19.28000000    22.67000000
   C     52.41000000   -17.45000000    20.55000000
   C     53.45000000   -16.51000000    19.96000000
   C     53.97000000   -17.03000000    18.62000000
   C     55.14000000   -16.16000000    18.17000000
   N     55.70000000   -16.69000000    16.92000000
   H     51.06000000   -15.33000000    21.91000000
   H     53.06000000   -17.44000000    22.49000000
   H     51.48000000   -17.33000000    20.00000000
   H     52.68000000   -18.50000000    20.53000000
   H     54.32000000   -16.42000000    20.61000000
   H     53.01000000   -15.54000000    19.74000000
   H     53.22000000   -17.01000000    17.84000000
   H     54.35000000   -18.05000000    18.70000000
   H     55.96000000   -16.13000000    18.89000000
   H     54.63000000   -15.21000000    18.07000000
   H     56.38000000   -17.42000000    17.09000000
   H     54.95000000   -17.12000000    16.40000000
   H     55.94000000   -15.91000000    16.32000000
   N     49.92000000   -17.85000000    23.25000000
   C     48.99000000   -16.75000000    23.42000000
   C     48.76000000   -15.91000000    22.18000000
   O     48.87000000   -14.69000000    22.10000000
   C     49.29000000   -16.12000000    24.78000000
   C     48.08000000   -15.38000000    25.34000000
   C     48.36000000   -14.78000000    26.71000000
   O     49.02000000   -13.72000000    26.85000000
   O     47.83000000   -15.23000000    27.74000000
   H     49.69000000   -18.66000000    23.80000000
   H     48.03000000   -17.25000000    23.55000000
   H     50.12000000   -15.44000000    24.58000000
   H     49.54000000   -16.96000000    25.43000000
   H     47.32000000   -16.16000000    25.31000000
   H     47.77000000   -14.68000000    24.56000000
   N     48.49000000   -16.64000000    21.10000000
   C     48.39000000   -16.21000000    19.72000000
   H     47.93300000   -15.22100000    19.68000000
   H     49.38600000   -16.16700000    19.27900000
   H     47.77500000   -16.91600000    19.16200000
   H     48.47000000   -17.63000000    21.29000000
  Ca     48.25000000   -13.14500000    29.29000000
   O     46.26000000   -12.07500000    27.93000000
   H     45.56000000   -11.41500000    27.92000000
   H     45.89000000   -12.81500000    27.45000000
   O     46.43000000   -15.76500000    29.94000000
   H     45.74000000   -15.10500000    30.04000000
   H     46.61000000   -15.78500000    29.00000000
   O     48.15000000   -10.35500000    29.77000000
   H     48.52000000    -9.47500000    29.82000000
   H     47.22000000   -10.22500000    29.62000000

Ca 1.00



