%chk=loop3.cluster90.chk
%nprocshared=20
%mem=10GB
%nosave
#b3lyp/svp scf=(tight,noincore,xqc) Test 
#IOP(5/87=12) Density=Current Pop=(MK,readradii) iop(6/33=2) iop(6/42=6)

loop3.cluster90 

   0  1 
   C     83.87000000    75.95000000    25.56000000
   C     85.34000000    75.70000000    25.84000000
   O     85.75000000    74.68000000    26.39000000
   H     83.32400000    75.99700000    26.50200000
   H     83.75600000    76.89400000    25.02700000
   H     83.47200000    75.13800000    24.95100000
   N     86.15000000    76.62000000    25.31000000
   C     87.60000000    76.53000000    25.31000000
   C     88.10000000    76.81000000    26.71000000
   O     88.66000000    75.94000000    27.38000000
   C     88.17000000    77.41000000    24.20000000
   C     87.54000000    78.77000000    23.94000000
   O     87.00000000    79.35000000    24.91000000
   O     87.42000000    79.29000000    22.81000000
   H     85.73000000    77.48000000    25.00000000
   H     87.87000000    75.53000000    24.99000000
   H     88.15000000    76.76000000    23.32000000
   H     89.21000000    77.58000000    24.47000000
   N     87.81000000    77.97000000    27.32000000
   C     88.41000000    78.36000000    28.58000000
   C     89.91000000    78.54000000    28.45000000
   O     90.28000000    79.31000000    27.56000000
   C     87.79000000    79.63000000    29.15000000
   C     87.98000000    79.74000000    30.66000000
   C     87.18000000    80.92000000    31.19000000
   C     87.55000000    81.22000000    32.64000000
   N     86.56000000    82.15000000    33.21000000
   H     87.27000000    78.66000000    26.82000000
   H     88.21000000    77.51000000    29.24000000
   H     86.75000000    79.46000000    28.87000000
   H     88.17000000    80.51000000    28.62000000
   H     89.01000000    79.91000000    30.96000000
   H     87.55000000    78.86000000    31.15000000
   H     86.11000000    80.68000000    31.17000000
   H     87.28000000    81.85000000    30.64000000
   H     88.49000000    81.75000000    32.53000000
   H     87.70000000    80.31000000    33.22000000
   H     86.50000000    82.97000000    32.63000000
   H     85.64000000    81.74000000    33.22000000
   H     86.76000000    82.47000000    34.15000000
   N     90.66000000    77.73000000    29.20000000
   C     92.10000000    77.56000000    29.09000000
   C     92.56000000    76.63000000    27.98000000
   O     93.76000000    76.46000000    27.83000000
   C     92.54000000    76.84000000    30.37000000
   C     91.81000000    75.55000000    30.73000000
   O     92.17000000    74.94000000    31.76000000
   O     90.87000000    75.14000000    30.02000000
   H     90.19000000    76.98000000    29.68000000
   H     92.60000000    78.53000000    29.08000000
   H     92.34000000    77.49000000    31.21000000
   H     93.60000000    76.57000000    30.37000000
   N     91.63000000    76.02000000    27.24000000
   C     91.87000000    75.51000000    25.91000000
   C     91.86000000    76.59000000    24.84000000
   O     91.66000000    77.76000000    25.14000000
   H     90.68000000    76.30000000    27.44000000
   H     91.11000000    74.79000000    25.61000000
   H     92.85000000    75.03000000    25.85000000
   N     92.20000000    76.25000000    23.59000000
   C     92.31000000    74.89000000    23.10000000
   C     90.95000000    74.22000000    23.28000000
   O     89.93000000    74.90000000    23.27000000
   C     92.66000000    74.88000000    21.61000000
   C     92.96000000    73.49000000    21.08000000
   N     92.28000000    73.04000000    20.02000000
   O     93.83000000    72.78000000    21.59000000
   H     92.28000000    77.07000000    23.01000000
   H     93.18000000    74.40000000    23.52000000
   H     93.56000000    75.47000000    21.48000000
   H     91.86000000    75.38000000    21.06000000
   H     91.49000000    73.54000000    19.65000000
   H     92.53000000    72.11000000    19.70000000
   N     90.82000000    72.91000000    23.49000000
   C     91.84000000    71.89000000    23.59000000
   C     91.49000000    70.85000000    24.64000000
   O     90.40000000    70.90000000    25.19000000
   H     89.90000000    72.52000000    23.62000000
   H     92.79000000    72.34000000    23.86000000
   H     91.87000000    71.37000000    22.63000000
   N     92.50000000    70.04000000    24.97000000
   C     92.45000000    69.19000000    26.15000000
   C     93.55000000    69.51000000    27.15000000
   O     94.59000000    70.05000000    26.77000000
   C     92.40000000    67.72000000    25.75000000
   C     91.23000000    67.27000000    24.91000000
   C     89.90000000    67.58000000    25.20000000
   C     91.59000000    66.59000000    23.74000000
   C     88.90000000    67.26000000    24.28000000
   C     90.57000000    66.30000000    22.83000000
   C     89.21000000    66.45000000    23.17000000
   O     88.23000000    66.12000000    22.28000000
   H     93.38000000    70.07000000    24.48000000
   H     91.53000000    69.31000000    26.72000000
   H     92.34000000    67.06000000    26.61000000
   H     93.38000000    67.60000000    25.29000000
   H     89.60000000    68.12000000    26.09000000
   H     92.61000000    66.36000000    23.47000000
   H     87.86000000    67.47000000    24.52000000
   H     90.88000000    65.92000000    21.87000000
   H     88.62000000    65.71000000    21.51000000
   N     93.40000000    68.95000000    28.35000000
   C     94.41000000    69.02000000    29.39000000
   C     94.72000000    67.66000000    30.01000000
   O     95.86000000    67.51000000    30.44000000
   C     94.10000000    70.01000000    30.50000000
   C     92.79000000    69.71000000    31.21000000
   C     95.28000000    70.29000000    31.43000000
   C     92.08000000    70.87000000    31.91000000
   H     92.58000000    68.39000000    28.52000000
   H     95.33000000    69.22000000    28.84000000
   H     93.83000000    70.95000000    30.00000000
   H     92.93000000    68.87000000    31.89000000
   H     91.98000000    69.44000000    30.54000000
   H     95.50000000    69.43000000    32.07000000
   H     96.18000000    70.47000000    30.85000000
   H     95.21000000    71.27000000    31.90000000
   H     92.63000000    71.26000000    32.77000000
   H     91.77000000    71.65000000    31.22000000
   H     91.18000000    70.48000000    32.39000000
   N     93.78000000    66.72000000    30.03000000
   C     93.95000000    65.31000000    30.33000000
   C     92.87000000    64.84000000    31.29000000
   O     92.73000000    63.62000000    31.42000000
   C     94.01000000    64.58000000    28.99000000
   O     95.17000000    64.92000000    28.26000000
   H     92.90000000    67.01000000    29.62000000
   H     94.86000000    65.13000000    30.89000000
   H     93.08000000    64.79000000    28.47000000
   H     94.11000000    63.52000000    29.24000000
   H     95.87000000    64.63000000    28.86000000
   N     92.17000000    65.71000000    32.01000000
   C     91.08000000    65.34000000    32.89000000
   C     89.94000000    66.34000000    32.98000000
   O     90.18000000    67.51000000    33.26000000
   C     91.48000000    64.89000000    34.29000000
   H     92.29000000    66.71000000    31.95000000
   H     90.64000000    64.45000000    32.43000000
   H     90.48000000    64.76000000    34.70000000
   H     92.09000000    63.99000000    34.36000000
   H     92.02000000    65.70000000    34.79000000
   N     88.68000000    65.89000000    33.05000000
   C     87.42000000    66.42000000    33.54000000
   C     86.94000000    67.63000000    32.74000000
   O     86.27000000    68.46000000    33.34000000
   C     87.39000000    66.44000000    35.06000000
   H     88.61000000    64.91000000    32.84000000
   H     86.69000000    65.65000000    33.27000000
   H     86.36000000    66.38000000    35.42000000
   H     87.76000000    65.56000000    35.57000000
   H     87.91000000    67.34000000    35.39000000
   N     87.19000000    67.69000000    31.43000000
   C     86.83000000    68.77000000    30.53000000
   C     85.43000000    68.55000000    29.99000000
   O     84.61000000    69.45000000    29.84000000
   C     87.84000000    68.97000000    29.41000000
   C     89.17000000    69.50000000    29.95000000
   C     89.05000000    70.90000000    30.52000000
   O     89.45000000    71.87000000    29.84000000
   O     88.82000000    71.12000000    31.73000000
   H     87.72000000    66.92000000    31.04000000
   H     86.87000000    69.70000000    31.10000000
   H     87.52000000    69.76000000    28.74000000
   H     88.00000000    68.13000000    28.73000000
   H     89.91000000    69.34000000    29.16000000
   H     89.41000000    68.87000000    30.81000000
   N     85.06000000    67.28000000    29.77000000
   C     83.81000000    66.82000000    29.21000000
   H     83.07300000    67.62100000    29.26200000
   H     83.96100000    66.53300000    28.16900000
   H     83.45200000    65.96000000    29.77600000
   H     85.82000000    66.62000000    29.89000000
  Ca     88.61000000    74.16000000    29.41000000
   O     86.57000000    72.70000000    30.34000000
   H     85.77000000    72.50000000    29.85000000
   H     86.35000000    72.47000000    31.24000000
   O     89.62000000    73.64000000    32.02000000
   H     89.56000000    72.68000000    32.00000000
   H     90.48000000    73.84000000    31.66000000
   O     87.86000000    72.73000000    27.24000000
   H     87.16000000    73.14000000    26.73000000
   H     87.81000000    71.80000000    27.01000000
   O     86.12000000    75.15000000    29.07000000
   H     85.53000000    74.60000000    28.56000000
   H     85.79000000    76.04000000    28.94000000
   O     90.75000000    72.91000000    27.69000000
   H     90.97000000    72.55000000    26.83000000
   H     90.32000000    72.19000000    28.15000000
   O     88.29000000    76.33000000    31.08000000
   H     88.85000000    76.89000000    31.63000000
   H     87.41000000    76.46000000    31.44000000

Ca 1.00



