%chk=loop1.cluster17.chk
%nprocshared=20
%mem=10GB
%nosave
#b3lyp/svp scf=(tight,noincore,xqc) Test 
#IOP(5/87=12) Density=Current Pop=(MK,readradii) iop(6/33=2) iop(6/42=6)

loop1.cluster17 

   0  1 
   C     36.43000000    87.44000000   121.68000000
   C     36.71000000    86.84000000   123.04000000
   O     37.59000000    85.99000000   123.18000000
   H     35.64100000    88.18600000   121.76800000
   H     37.33500000    87.91200000   121.29700000
   H     36.11200000    86.65500000   120.99400000
   N     36.03000000    87.25000000   124.12000000
   C     36.29000000    86.90000000   125.51000000
   C     35.23000000    86.06000000   126.20000000
   O     35.34000000    85.76000000   127.39000000
   C     36.69000000    88.14000000   126.31000000
   C     35.60000000    89.20000000   126.33000000
   O     35.32000000    89.71000000   127.43000000
   O     34.82000000    89.45000000   125.38000000
   H     35.28000000    87.89000000   123.93000000
   H     37.11000000    86.18000000   125.55000000
   H     37.60000000    88.51000000   125.84000000
   H     36.81000000    87.88000000   127.36000000
   N     34.22000000    85.58000000   125.47000000
   C     33.01000000    84.97000000   126.00000000
   C     32.70000000    83.58000000   125.45000000
   O     32.53000000    83.51000000   124.24000000
   C     31.82000000    85.88000000   125.68000000
   C     32.09000000    87.29000000   126.20000000
   C     30.90000000    88.23000000   126.02000000
   C     31.15000000    89.58000000   126.69000000
   N     32.09000000    90.41000000   125.93000000
   H     34.17000000    85.76000000   124.48000000
   H     33.11000000    84.98000000   127.08000000
   H     30.93000000    85.53000000   126.20000000
   H     31.58000000    85.84000000   124.61000000
   H     32.92000000    87.81000000   125.74000000
   H     32.29000000    87.17000000   127.27000000
   H     29.99000000    87.82000000   126.45000000
   H     30.72000000    88.43000000   124.96000000
   H     31.54000000    89.42000000   127.70000000
   H     30.17000000    90.05000000   126.75000000
   H     32.01000000    90.47000000   124.92000000
   H     32.28000000    91.36000000   126.22000000
   H     32.99000000    89.95000000   126.03000000
   N     32.67000000    82.44000000   126.15000000
   C     33.09000000    82.30000000   127.53000000
   C     32.41000000    82.98000000   128.70000000
   O     31.82000000    84.06000000   128.60000000
   C     34.60000000    82.43000000   127.76000000
   C     35.32000000    81.63000000   126.69000000
   O     35.48000000    81.93000000   125.48000000
   O     35.52000000    80.42000000   126.91000000
   H     32.30000000    81.60000000   125.72000000
   H     32.95000000    81.24000000   127.76000000
   H     34.97000000    82.20000000   128.76000000
   H     34.79000000    83.49000000   127.62000000
   N     32.33000000    82.34000000   129.87000000
   C     32.89000000    81.09000000   130.35000000
   C     34.06000000    81.05000000   131.32000000
   O     34.18000000    81.79000000   132.30000000
   H     31.71000000    82.73000000   130.56000000
   H     33.05000000    80.37000000   129.56000000
   H     32.07000000    80.73000000   130.98000000
   N     35.16000000    80.32000000   131.11000000
   C     35.36000000    79.31000000   130.10000000
   C     36.80000000    78.89000000   129.80000000
   O     37.61000000    78.85000000   130.72000000
   C     34.55000000    78.09000000   130.55000000
   C     34.23000000    77.16000000   129.39000000
   O     33.51000000    77.54000000   128.43000000
   O     34.69000000    76.00000000   129.37000000
   H     35.78000000    80.20000000   131.90000000
   H     34.89000000    79.62000000   129.17000000
   H     33.60000000    78.36000000   131.02000000
   H     35.13000000    77.63000000   131.35000000
   N     37.14000000    78.47000000   128.58000000
   C     38.44000000    78.01000000   128.14000000
   C     39.27000000    79.10000000   127.47000000
   O     38.73000000    80.20000000   127.33000000
   H     36.38000000    78.43000000   127.92000000
   H     38.16000000    77.24000000   127.42000000
   H     39.00000000    77.54000000   128.95000000
   N     40.47000000    78.87000000   126.94000000
   C     41.08000000    79.58000000   125.83000000
   C     40.44000000    79.34000000   124.47000000
   O     39.86000000    78.28000000   124.22000000
   C     42.58000000    79.30000000   125.80000000
   C     42.99000000    77.83000000   125.72000000
   O     43.20000000    79.99000000   126.86000000
   H     40.82000000    77.96000000   127.21000000
   H     41.03000000    80.65000000   126.01000000
   H     42.94000000    79.79000000   124.90000000
   H     42.77000000    79.92000000   127.71000000
   H     44.06000000    77.77000000   125.49000000
   H     42.77000000    77.27000000   126.62000000
   H     42.58000000    77.33000000   124.84000000
   N     40.39000000    80.37000000   123.63000000
   C     39.70000000    80.36000000   122.36000000
   C     40.64000000    79.83000000   121.29000000
   O     41.36000000    80.56000000   120.60000000
   C     39.09000000    81.72000000   122.02000000
   C     38.37000000    81.54000000   120.68000000
   C     40.04000000    82.90000000   122.22000000
   C     37.66000000    82.81000000   120.25000000
   H     41.05000000    81.12000000   123.79000000
   H     38.90000000    79.62000000   122.37000000
   H     38.25000000    81.90000000   122.69000000
   H     37.64000000    80.74000000   120.76000000
   H     38.98000000    81.27000000   119.82000000
   H     40.27000000    82.93000000   123.28000000
   H     40.91000000    82.81000000   121.58000000
   H     39.47000000    83.80000000   121.98000000
   H     37.11000000    82.66000000   119.32000000
   H     36.94000000    83.18000000   120.98000000
   H     38.30000000    83.68000000   120.10000000
   N     40.58000000    78.52000000   121.04000000
   C     41.23000000    77.90000000   119.90000000
   C     40.25000000    77.71000000   118.75000000
   O     40.74000000    77.46000000   117.65000000
   C     42.10000000    76.71000000   120.30000000
   C     41.36000000    75.64000000   121.10000000
   O     43.16000000    77.09000000   121.14000000
   H     40.06000000    77.95000000   121.68000000
   H     41.95000000    78.64000000   119.53000000
   H     42.47000000    76.18000000   119.42000000
   H     43.75000000    77.59000000   120.57000000
   H     40.76000000    76.17000000   121.84000000
   H     40.69000000    75.14000000   120.40000000
   H     42.03000000    74.90000000   121.52000000
   N     38.96000000    77.91000000   119.02000000
   C     37.91000000    77.51000000   118.10000000
   C     37.82000000    76.00000000   118.13000000
   O     38.69000000    75.29000000   118.65000000
   C     38.05000000    78.07000000   116.69000000
   C     38.07000000    79.59000000   116.69000000
   O     36.86000000    77.80000000   115.99000000
   H     38.67000000    78.01000000   119.99000000
   H     36.96000000    77.90000000   118.48000000
   H     38.93000000    77.67000000   116.18000000
   H     36.68000000    78.59000000   115.47000000
   H     37.95000000    79.97000000   115.67000000
   H     37.27000000    80.03000000   117.28000000
   H     39.06000000    79.89000000   117.05000000
   N     36.64000000    75.49000000   117.78000000
   C     36.30000000    74.08000000   117.77000000
   C     35.39000000    73.52000000   118.85000000
   O     35.66000000    72.41000000   119.30000000
   C     35.77000000    73.80000000   116.37000000
   C     36.82000000    73.60000000   115.28000000
   C     37.71000000    72.37000000   115.42000000
   C     38.67000000    72.29000000   114.24000000
   N     39.35000000    73.54000000   113.87000000
   H     35.93000000    76.17000000   117.53000000
   H     37.16000000    73.47000000   118.05000000
   H     35.07000000    74.59000000   116.10000000
   H     35.15000000    72.90000000   116.34000000
   H     37.43000000    74.50000000   115.23000000
   H     36.30000000    73.49000000   114.33000000
   H     37.18000000    71.42000000   115.42000000
   H     38.31000000    72.43000000   116.34000000
   H     38.07000000    71.84000000   113.45000000
   H     39.41000000    71.57000000   114.60000000
   H     38.68000000    74.17000000   113.45000000
   H     39.78000000    73.90000000   114.71000000
   H     40.15000000    73.38000000   113.26000000
   N     34.33000000    74.11000000   119.41000000
   C     33.65000000    75.37000000   119.15000000
   C     33.53000000    75.97000000   117.76000000
   O     34.27000000    76.85000000   117.33000000
   C     34.01000000    76.45000000   120.16000000
   C     33.53000000    76.15000000   121.58000000
   C     34.03000000    77.22000000   122.53000000
   O     35.16000000    77.75000000   122.53000000
   O     33.22000000    77.78000000   123.31000000
   H     33.92000000    73.61000000   120.19000000
   H     32.60000000    75.15000000   119.32000000
   H     33.54000000    77.41000000   119.93000000
   H     35.09000000    76.54000000   120.16000000
   H     33.84000000    75.16000000   121.92000000
   H     32.45000000    76.03000000   121.57000000
   N     32.66000000    75.38000000   116.94000000
   C     32.38000000    75.65000000   115.54000000
   H     31.59300000    76.40000000   115.46600000
   H     33.28200000    76.02100000   115.05400000
   H     32.05400000    74.73200000   115.05000000
   H     32.14000000    74.60000000   117.31000000
  Ca     34.88000000    79.31000000   124.65100000
   O     35.74000000    80.71000000   122.70100000
   H     35.29000000    80.74000000   121.85100000
   H     36.04000000    81.60000000   122.85100000
   O     32.70000000    78.83000000   126.11100000
   H     31.75000000    78.99000000   126.16100000
   H     32.89000000    78.32000000   126.90100000
   O     37.38000000    78.37000000   124.88100000
   H     38.19000000    78.75000000   124.52100000
   H     37.62000000    77.47000000   125.11100000
   O     32.75000000    80.87000000   123.65100000
   H     31.92000000    80.55000000   123.28100000
   H     32.64000000    81.82000000   123.68100000
   O     35.21000000    77.06000000   126.15100000
   H     35.98000000    76.51000000   126.21100000
   H     34.59000000    76.68000000   126.77100000

Ca 1.00



