%chk=loop2.cluster77.chk
%nprocshared=20
%mem=10GB
%nosave
#b3lyp/svp scf=(tight,noincore,xqc) Test 
#IOP(5/87=12) Density=Current Pop=(MK,readradii) iop(6/33=2) iop(6/42=6)

loop2.cluster77 

   -2  1 
   C     60.45000000    46.93000000     8.49000000
   C     61.56000000    46.71000000     7.48000000
   O     62.15000000    45.63000000     7.50000000
   H     59.54600000    46.42400000     8.15200000
   H     60.75200000    46.52600000     9.45600000
   H     60.25300000    47.99800000     8.58700000
   N     61.91000000    47.62000000     6.57000000
   C     63.03000000    47.44000000     5.67000000
   C     62.63000000    46.70000000     4.40000000
   O     62.89000000    47.17000000     3.29000000
   C     63.78000000    48.75000000     5.49000000
   C     63.00000000    50.00000000     5.10000000
   O     63.66000000    51.05000000     4.95000000
   O     61.75000000    49.95000000     5.07000000
   H     61.42000000    48.50000000     6.51000000
   H     63.72000000    46.75000000     6.15000000
   H     64.54000000    48.68000000     4.72000000
   H     64.32000000    49.00000000     6.41000000
   N     61.88000000    45.61000000     4.57000000
   C     61.19000000    44.95000000     3.48000000
   C     59.94000000    44.25000000     3.98000000
   O     59.99000000    43.62000000     5.04000000
   C     62.14000000    43.93000000     2.86000000
   H     61.71000000    45.25000000     5.49000000
   H     60.92000000    45.72000000     2.76000000
   H     62.54000000    43.25000000     3.61000000
   H     61.60000000    43.36000000     2.10000000
   H     63.00000000    44.34000000     2.32000000
   N     58.74000000    44.11000000     3.40000000
   C     58.33000000    44.63000000     2.11000000
   C     58.45000000    46.15000000     2.13000000
   O     58.16000000    46.79000000     3.14000000
   C     56.90000000    44.23000000     1.77000000
   C     55.83000000    44.38000000     2.84000000
   O     54.64000000    44.24000000     2.49000000
   O     56.05000000    44.65000000     4.04000000
   H     58.04000000    43.53000000     3.84000000
   H     58.99000000    44.31000000     1.30000000
   H     56.92000000    43.15000000     1.59000000
   H     56.66000000    44.72000000     0.82000000
   N     58.87000000    46.75000000     1.02000000
   C     59.48000000    48.06000000     0.95000000
   C     58.85000000    48.97000000    -0.10000000
   O     59.43000000    49.14000000    -1.17000000
   H     58.81000000    46.22000000     0.16000000
   H     60.51000000    48.03000000     0.60000000
   H     59.53000000    48.62000000     1.89000000
   N     57.68000000    49.54000000     0.17000000
   C     56.93000000    49.37000000     1.40000000
   C     57.41000000    50.24000000     2.55000000
   O     57.32000000    51.46000000     2.42000000
   C     55.44000000    49.53000000     1.13000000
   C     54.76000000    48.43000000     0.32000000
   N     55.08000000    47.18000000     0.62000000
   O     54.05000000    48.73000000    -0.64000000
   H     57.50000000    50.27000000    -0.51000000
   H     57.04000000    48.32000000     1.66000000
   H     55.11000000    50.53000000     0.86000000
   H     55.02000000    49.44000000     2.13000000
   H     55.54000000    46.95000000     1.50000000
   H     54.79000000    46.48000000    -0.05000000
   N     57.69000000    49.67000000     3.73000000
   C     57.99000000    50.33000000     4.98000000
   C     56.85000000    50.22000000     5.99000000
   O     56.97000000    50.79000000     7.07000000
   H     57.56000000    48.67000000     3.67000000
   H     58.22000000    51.38000000     4.80000000
   H     58.81000000    49.77000000     5.44000000
   N     55.83000000    49.40000000     5.75000000
   C     54.53000000    49.31000000     6.39000000
   C     54.00000000    47.93000000     6.76000000
   O     54.29000000    46.98000000     6.04000000
   C     53.46000000    49.98000000     5.53000000
   C     53.89000000    51.33000000     4.95000000
   O     53.25000000    49.35000000     4.29000000
   H     55.78000000    49.15000000     4.77000000
   H     54.54000000    50.00000000     7.23000000
   H     52.56000000    50.07000000     6.14000000
   H     53.43000000    48.41000000     4.40000000
   H     53.05000000    51.71000000     4.37000000
   H     54.10000000    51.96000000     5.81000000
   H     54.74000000    51.20000000     4.29000000
   N     53.07000000    47.81000000     7.71000000
   C     52.80000000    46.58000000     8.42000000
   C     51.70000000    45.90000000     7.61000000
   O     51.69000000    46.07000000     6.39000000
   C     52.40000000    46.80000000     9.87000000
   C     53.63000000    46.90000000    10.78000000
   C     51.48000000    47.99000000    10.07000000
   C     54.55000000    48.11000000    10.70000000
   H     52.74000000    48.64000000     8.19000000
   H     53.70000000    45.96000000     8.34000000
   H     51.86000000    45.92000000    10.22000000
   H     54.23000000    46.00000000    10.70000000
   H     53.17000000    46.86000000    11.77000000
   H     50.47000000    47.86000000     9.66000000
   H     51.35000000    48.21000000    11.13000000
   H     51.75000000    48.93000000     9.59000000
   H     55.31000000    47.92000000    11.46000000
   H     54.94000000    48.15000000     9.69000000
   H     53.90000000    48.96000000    10.92000000
   N     50.89000000    45.03000000     8.21000000
   C     49.66000000    44.41000000     7.76000000
   C     49.09000000    43.62000000     8.93000000
   O     49.69000000    43.62000000    10.00000000
   C     49.99000000    43.44000000     6.62000000
   C     51.16000000    42.51000000     6.90000000
   O     52.20000000    42.53000000     6.20000000
   O     50.97000000    41.56000000     7.69000000
   H     51.03000000    44.74000000     9.17000000
   H     48.97000000    45.16000000     7.37000000
   H     50.30000000    43.98000000     5.73000000
   H     49.18000000    42.74000000     6.43000000
   N     47.95000000    42.93000000     8.75000000
   C     47.34000000    42.04000000     9.72000000
   C     48.30000000    41.18000000    10.52000000
   O     48.49000000    41.37000000    11.72000000
   C     46.36000000    42.84000000    10.56000000
   C     45.28000000    42.02000000    11.23000000
   C     45.33000000    41.55000000    12.55000000
   C     44.29000000    41.58000000    10.34000000
   C     44.26000000    40.81000000    13.07000000
   C     43.25000000    40.81000000    10.87000000
   C     43.21000000    40.44000000    12.22000000
   H     47.58000000    42.77000000     7.83000000
   H     46.74000000    41.40000000     9.08000000
   H     45.88000000    43.67000000    10.05000000
   H     47.01000000    43.26000000    11.33000000
   H     46.22000000    41.64000000    13.15000000
   H     44.17000000    41.91000000     9.32000000
   H     44.29000000    40.38000000    14.06000000
   H     42.53000000    40.46000000    10.14000000
   H     42.45000000    39.77000000    12.59000000
   N     48.92000000    40.18000000     9.89000000
   C     49.87000000    39.28000000    10.53000000
   C     51.02000000    39.96000000    11.25000000
   O     51.40000000    39.50000000    12.32000000
   C     50.40000000    38.41000000     9.39000000
   C     49.15000000    38.22000000     8.54000000
   C     48.46000000    39.58000000     8.66000000
   H     49.22000000    38.77000000    11.24000000
   H     51.13000000    38.96000000     8.80000000
   H     50.78000000    37.45000000     9.75000000
   H     49.43000000    38.07000000     7.49000000
   H     48.53000000    37.44000000     8.97000000
   H     48.68000000    40.27000000     7.86000000
   H     47.40000000    39.36000000     8.57000000
   N     51.51000000    41.06000000    10.66000000
   C     52.69000000    41.82000000    11.02000000
   C     52.45000000    42.88000000    12.08000000
   O     53.32000000    43.23000000    12.89000000
   C     53.23000000    42.47000000     9.74000000
   C     54.59000000    43.14000000     9.83000000
   C     55.15000000    43.38000000     8.44000000
   O     56.27000000    42.86000000     8.23000000
   O     54.56000000    43.90000000     7.46000000
   H     51.15000000    41.23000000     9.74000000
   H     53.46000000    41.11000000    11.33000000
   H     52.56000000    43.19000000     9.28000000
   H     53.26000000    41.64000000     9.03000000
   H     55.20000000    42.37000000    10.30000000
   H     54.57000000    44.05000000    10.44000000
   N     51.22000000    43.35000000    12.26000000
   C     50.87000000    44.20000000    13.38000000
   H     49.84500000    43.99200000    13.68700000
   H     51.54600000    44.00200000    14.21200000
   H     50.95400000    45.24600000    13.08400000
   H     50.48000000    43.03000000    11.65000000
  Ca     53.68000000    44.25000000     5.01000000
   O     51.39000000    43.85000000     3.58000000
   H     50.96000000    44.47000000     2.98000000
   H     50.71000000    43.22000000     3.80000000
   O     55.19000000    41.99000000     5.07000000
   H     55.73000000    42.30000000     5.80000000
   H     55.74000000    41.35000000     4.62000000
   O     52.79000000    46.48000000     3.88000000
   H     52.44000000    46.77000000     3.04000000
   H     52.05000000    46.57000000     4.49000000

Ca 1.00



