%chk=loop2.cluster220.chk
%nprocshared=20
%mem=10GB
%nosave
#b3lyp/svp scf=(tight,noincore,xqc) Test 
#IOP(5/87=12) Density=Current Pop=(MK,readradii) iop(6/33=2) iop(6/42=6)

loop2.cluster220 

   -2  1 
   C     47.87000000    45.45000000    17.80000000
   C     48.35000000    45.60000000    16.36000000
   O     48.06000000    44.81000000    15.46000000
   H     46.84200000    45.08700000    17.80400000
   H     48.50800000    44.73900000    18.32400000
   H     47.91500000    46.41700000    18.30100000
   N     49.11000000    46.68000000    16.19000000
   C     49.63000000    47.12000000    14.91000000
   C     48.60000000    47.64000000    13.92000000
   O     47.44000000    47.86000000    14.28000000
   C     50.75000000    48.12000000    15.20000000
   C     51.61000000    48.42000000    13.98000000
   O     51.77000000    47.50000000    13.15000000
   O     52.19000000    49.52000000    13.93000000
   H     49.56000000    47.11000000    16.99000000
   H     50.17000000    46.26000000    14.52000000
   H     51.39000000    47.74000000    15.99000000
   H     50.28000000    49.05000000    15.53000000
   N     49.00000000    47.96000000    12.69000000
   C     48.14000000    48.46000000    11.64000000
   C     46.75000000    47.86000000    11.53000000
   O     46.61000000    46.67000000    11.81000000
   C     48.95000000    48.27000000    10.36000000
   H     49.99000000    47.88000000    12.46000000
   H     48.07000000    49.55000000    11.74000000
   H     48.44000000    48.71000000     9.51000000
   H     49.90000000    48.81000000    10.49000000
   H     49.06000000    47.21000000    10.14000000
   N     45.71000000    48.58000000    11.11000000
   C     45.66000000    50.03000000    11.10000000
   C     46.00000000    50.56000000    12.49000000
   O     45.52000000    50.06000000    13.51000000
   C     44.25000000    50.52000000    10.81000000
   C     43.22000000    49.68000000    11.55000000
   O     42.98000000    48.49000000    11.24000000
   O     42.56000000    50.15000000    12.50000000
   H     44.83000000    48.10000000    11.02000000
   H     46.40000000    50.45000000    10.42000000
   H     43.97000000    50.54000000     9.76000000
   H     44.19000000    51.58000000    11.07000000
   N     46.76000000    51.65000000    12.45000000
   C     47.34000000    52.27000000    13.62000000
   C     47.18000000    53.79000000    13.64000000
   O     48.08000000    54.44000000    13.12000000
   H     47.13000000    51.81000000    11.52000000
   H     48.40000000    52.06000000    13.66000000
   H     46.89000000    51.77000000    14.49000000
   N     46.07000000    54.36000000    14.10000000
   C     44.99000000    53.71000000    14.83000000
   C     45.31000000    53.38000000    16.28000000
   O     46.17000000    54.01000000    16.90000000
   C     43.74000000    54.58000000    14.71000000
   C     43.26000000    54.83000000    13.29000000
   N     43.47000000    56.04000000    12.77000000
   O     42.68000000    53.92000000    12.70000000
   H     45.95000000    55.34000000    13.89000000
   H     44.74000000    52.78000000    14.34000000
   H     43.90000000    55.57000000    15.17000000
   H     42.95000000    54.15000000    15.32000000
   H     44.03000000    56.73000000    13.25000000
   H     43.31000000    56.16000000    11.78000000
   N     44.71000000    52.38000000    16.92000000
   C     45.22000000    51.73000000    18.11000000
   C     44.29000000    50.69000000    18.71000000
   O     44.48000000    50.35000000    19.88000000
   H     43.93000000    51.92000000    16.46000000
   H     45.44000000    52.51000000    18.84000000
   H     46.20000000    51.29000000    17.96000000
   N     43.33000000    50.15000000    17.96000000
   C     42.30000000    49.22000000    18.37000000
   C     42.25000000    47.96000000    17.52000000
   O     42.64000000    47.95000000    16.35000000
   C     40.99000000    49.98000000    18.48000000
   C     41.05000000    51.07000000    19.55000000
   O     40.66000000    50.56000000    17.24000000
   H     43.33000000    50.39000000    16.97000000
   H     42.49000000    48.87000000    19.39000000
   H     40.19000000    49.28000000    18.75000000
   H     40.24000000    51.38000000    17.52000000
   H     41.33000000    50.60000000    20.49000000
   H     41.84000000    51.79000000    19.38000000
   H     40.07000000    51.51000000    19.74000000
   N     41.61000000    46.93000000    18.08000000
   C     41.08000000    45.75000000    17.43000000
   C     39.84000000    46.01000000    16.58000000
   O     38.95000000    46.80000000    16.87000000
   C     40.85000000    44.55000000    18.34000000
   C     42.22000000    44.07000000    18.81000000
   C     40.02000000    44.95000000    19.55000000
   C     42.11000000    42.95000000    19.84000000
   H     41.35000000    47.13000000    19.03000000
   H     41.71000000    45.35000000    16.64000000
   H     40.34000000    43.74000000    17.82000000
   H     42.75000000    44.86000000    19.33000000
   H     42.86000000    43.72000000    17.99000000
   H     39.12000000    45.54000000    19.33000000
   H     39.62000000    44.02000000    19.96000000
   H     40.62000000    45.48000000    20.29000000
   H     41.80000000    43.39000000    20.78000000
   H     41.52000000    42.13000000    19.44000000
   H     43.11000000    42.52000000    19.96000000
   N     39.70000000    45.13000000    15.58000000
   C     38.43000000    44.70000000    15.02000000
   C     38.51000000    43.32000000    14.38000000
   O     39.52000000    42.99000000    13.77000000
   C     37.89000000    45.72000000    14.03000000
   C     38.88000000    46.22000000    12.98000000
   O     39.72000000    47.09000000    13.28000000
   O     38.77000000    45.85000000    11.79000000
   H     40.51000000    44.58000000    15.34000000
   H     37.75000000    44.74000000    15.87000000
   H     37.69000000    46.56000000    14.70000000
   H     36.95000000    45.38000000    13.59000000
   N     37.50000000    42.50000000    14.67000000
   C     37.50000000    41.12000000    14.23000000
   C     38.80000000    40.42000000    14.60000000
   O     39.29000000    40.53000000    15.72000000
   C     36.34000000    40.31000000    14.80000000
   C     36.31000000    38.82000000    14.56000000
   C     36.61000000    37.97000000    15.63000000
   C     35.95000000    38.27000000    13.32000000
   C     36.55000000    36.58000000    15.51000000
   C     35.92000000    36.87000000    13.23000000
   C     36.16000000    36.00000000    14.29000000
   H     36.67000000    42.97000000    14.99000000
   H     37.30000000    41.01000000    13.16000000
   H     35.39000000    40.65000000    14.38000000
   H     36.20000000    40.52000000    15.86000000
   H     36.89000000    38.46000000    16.55000000
   H     35.54000000    38.88000000    12.53000000
   H     36.84000000    35.92000000    16.31000000
   H     35.59000000    36.40000000    12.32000000
   H     36.00000000    34.93000000    14.22000000
   N     39.41000000    39.64000000    13.69000000
   C     40.51000000    38.77000000    14.03000000
   C     41.77000000    39.45000000    14.55000000
   O     42.75000000    38.73000000    14.77000000
   C     40.72000000    37.99000000    12.74000000
   C     40.31000000    38.89000000    11.57000000
   C     39.14000000    39.58000000    12.27000000
   H     40.06000000    38.11000000    14.77000000
   H     41.78000000    37.76000000    12.62000000
   H     40.07000000    37.13000000    12.81000000
   H     41.01000000    39.68000000    11.28000000
   H     39.91000000    38.27000000    10.76000000
   H     39.16000000    40.62000000    11.94000000
   H     38.25000000    39.04000000    11.95000000
   N     41.87000000    40.75000000    14.82000000
   C     43.14000000    41.36000000    15.20000000
   C     43.64000000    40.96000000    16.58000000
   O     44.81000000    41.16000000    16.88000000
   C     43.06000000    42.88000000    15.16000000
   C     42.84000000    43.31000000    13.71000000
   C     42.65000000    44.82000000    13.58000000
   O     42.43000000    45.51000000    14.60000000
   O     42.71000000    45.39000000    12.47000000
   H     41.10000000    41.40000000    14.74000000
   H     43.91000000    41.09000000    14.48000000
   H     44.00000000    43.32000000    15.49000000
   H     42.37000000    43.27000000    15.91000000
   H     42.05000000    42.77000000    13.20000000
   H     43.79000000    43.10000000    13.23000000
   N     42.81000000    40.31000000    17.40000000
   C     43.17000000    39.66000000    18.65000000
   H     44.02000000    40.17600000    19.09500000
   H     42.32400000    39.69600000    19.33600000
   H     43.43700000    38.62100000    18.45600000
   H     41.85000000    40.29000000    17.10000000
  Ca     42.02000000    47.91000000    13.86000000
   O     44.63000000    47.48000000    14.21000000
   H     45.23000000    48.18000000    13.93000000
   H     45.18000000    46.90000000    14.73000000
   O     40.06000000    49.58000000    14.75000000
   H     39.85000000    50.32000000    14.18000000
   H     39.99000000    49.95000000    15.64000000

Ca 1.00



