%chk=loop2.cluster68.chk
%nprocshared=20
%mem=10GB
%nosave
#b3lyp/svp scf=(tight,noincore,xqc) Test 
#IOP(5/87=12) Density=Current Pop=(MK,readradii) iop(6/33=2) iop(6/42=6)

loop2.cluster68 

   -2  1 
   C     58.00000000    27.90000000    10.90000000
   C     58.36000000    28.14000000     9.44000000
   O     57.71000000    27.57000000     8.57000000
   H     56.96400000    27.56800000    10.96800000
   H     58.65500000    27.13400000    11.31500000
   H     58.12200000    28.82600000    11.46200000
   N     59.25000000    29.10000000     9.17000000
   C     59.53000000    29.71000000     7.89000000
   C     60.34000000    28.83000000     6.96000000
   O     60.23000000    28.94000000     5.74000000
   C     60.17000000    31.09000000     8.07000000
   C     60.19000000    31.77000000     6.71000000
   O     61.32000000    31.90000000     6.20000000
   O     59.14000000    32.21000000     6.20000000
   H     59.87000000    29.34000000     9.93000000
   H     58.56000000    29.91000000     7.43000000
   H     61.15000000    30.83000000     8.48000000
   H     59.66000000    31.68000000     8.84000000
   N     61.01000000    27.80000000     7.47000000
   C     61.60000000    26.69000000     6.74000000
   C     60.62000000    25.83000000     5.94000000
   O     61.03000000    24.84000000     5.34000000
   C     62.81000000    27.15000000     5.94000000
   H     60.95000000    27.76000000     8.48000000
   H     62.06000000    26.05000000     7.50000000
   H     63.37000000    27.90000000     6.49000000
   H     63.39000000    26.23000000     5.82000000
   H     62.62000000    27.50000000     4.92000000
   N     59.34000000    26.22000000     5.93000000
   C     58.26000000    25.47000000     5.34000000
   C     58.35000000    25.30000000     3.83000000
   O     58.15000000    24.21000000     3.30000000
   C     58.09000000    24.15000000     6.09000000
   C     56.68000000    23.56000000     6.16000000
   O     56.56000000    22.44000000     6.69000000
   O     55.70000000    24.25000000     5.81000000
   H     59.14000000    27.16000000     6.23000000
   H     57.31000000    25.98000000     5.48000000
   H     58.41000000    24.38000000     7.10000000
   H     58.79000000    23.42000000     5.69000000
   N     58.87000000    26.36000000     3.21000000
   C     59.20000000    26.27000000     1.80000000
   C     59.94000000    27.51000000     1.31000000
   O     60.43000000    28.33000000     2.09000000
   H     59.07000000    27.24000000     3.67000000
   H     58.38000000    26.06000000     1.11000000
   H     59.89000000    25.44000000     1.68000000
   N     59.93000000    27.64000000    -0.02000000
   C     60.57000000    28.75000000    -0.68000000
   C     60.02000000    30.17000000    -0.58000000
   O     60.78000000    31.12000000    -0.67000000
   C     60.92000000    28.33000000    -2.11000000
   C     59.68000000    28.24000000    -2.98000000
   N     59.12000000    27.05000000    -3.22000000
   O     59.12000000    29.28000000    -3.33000000
   H     59.38000000    27.04000000    -0.62000000
   H     61.53000000    28.88000000    -0.18000000
   H     61.33000000    27.32000000    -2.07000000
   H     61.62000000    29.04000000    -2.55000000
   H     59.48000000    26.18000000    -2.85000000
   H     58.27000000    27.07000000    -3.76000000
   N     58.73000000    30.20000000    -0.23000000
   C     58.05000000    31.45000000     0.02000000
   C     58.05000000    31.80000000     1.51000000
   O     59.00000000    32.41000000     2.01000000
   H     58.24000000    29.31000000    -0.19000000
   H     57.04000000    31.36000000    -0.36000000
   H     58.54000000    32.21000000    -0.59000000
   N     56.92000000    31.55000000     2.17000000
   C     56.99000000    31.15000000     3.56000000
   C     55.80000000    31.63000000     4.38000000
   O     54.66000000    31.70000000     3.93000000
   C     57.03000000    29.63000000     3.58000000
   C     57.25000000    29.13000000     5.01000000
   O     55.94000000    28.92000000     3.03000000
   H     56.11000000    31.14000000     1.74000000
   H     57.95000000    31.48000000     3.97000000
   H     57.80000000    29.29000000     2.89000000
   H     56.24000000    28.71000000     2.15000000
   H     57.88000000    29.73000000     5.67000000
   H     56.29000000    28.93000000     5.49000000
   H     57.64000000    28.12000000     4.98000000
   N     56.13000000    31.90000000     5.65000000
   C     55.22000000    32.31000000     6.69000000
   C     54.44000000    31.10000000     7.18000000
   O     54.72000000    29.97000000     6.79000000
   C     55.99000000    33.07000000     7.77000000
   C     55.13000000    34.09000000     8.51000000
   C     56.71000000    32.19000000     8.78000000
   C     55.96000000    35.25000000     9.05000000
   H     57.10000000    31.81000000     5.90000000
   H     54.58000000    33.04000000     6.19000000
   H     56.77000000    33.61000000     7.22000000
   H     54.62000000    33.65000000     9.36000000
   H     54.36000000    34.45000000     7.82000000
   H     57.24000000    32.76000000     9.54000000
   H     55.99000000    31.67000000     9.40000000
   H     57.42000000    31.50000000     8.31000000
   H     55.28000000    36.09000000     9.23000000
   H     56.32000000    34.96000000    10.03000000
   H     56.71000000    35.56000000     8.33000000
   N     53.44000000    31.35000000     8.03000000
   C     52.33000000    30.44000000     8.20000000
   C     51.08000000    31.25000000     8.48000000
   O     50.98000000    32.34000000     7.92000000
   C     52.67000000    29.37000000     9.24000000
   C     51.83000000    28.10000000     9.23000000
   O     52.37000000    26.98000000     9.12000000
   O     50.59000000    28.19000000     9.35000000
   H     53.32000000    32.31000000     8.31000000
   H     52.04000000    29.92000000     7.28000000
   H     52.56000000    29.81000000    10.23000000
   H     53.72000000    29.10000000     9.15000000
   N     50.13000000    30.80000000     9.31000000
   C     48.77000000    31.29000000     9.34000000
   C     47.70000000    30.22000000     9.26000000
   O     47.19000000    30.01000000     8.16000000
   C     48.63000000    32.41000000    10.37000000
   C     47.29000000    33.11000000    10.44000000
   C     46.53000000    33.28000000     9.27000000
   C     46.66000000    33.41000000    11.65000000
   C     45.22000000    33.75000000     9.24000000
   C     45.36000000    33.93000000    11.61000000
   C     44.59000000    34.04000000    10.45000000
   H     50.30000000    29.92000000     9.78000000
   H     48.57000000    31.78000000     8.39000000
   H     49.30000000    33.16000000     9.95000000
   H     49.06000000    32.19000000    11.35000000
   H     46.95000000    33.03000000     8.30000000
   H     47.20000000    33.28000000    12.58000000
   H     44.68000000    33.79000000     8.30000000
   H     44.94000000    34.18000000    12.57000000
   H     43.56000000    34.38000000    10.46000000
   N     47.24000000    29.62000000    10.36000000
   C     47.44000000    29.87000000    11.77000000
   C     48.76000000    29.61000000    12.50000000
   O     49.07000000    30.26000000    13.50000000
   C     46.23000000    29.27000000    12.48000000
   C     45.22000000    29.22000000    11.34000000
   C     46.14000000    28.69000000    10.24000000
   H     47.19000000    30.92000000    11.87000000
   H     46.39000000    28.25000000    12.81000000
   H     45.92000000    29.94000000    13.28000000
   H     44.29000000    28.67000000    11.49000000
   H     44.85000000    30.23000000    11.13000000
   H     46.56000000    27.69000000    10.39000000
   H     45.56000000    28.83000000     9.33000000
   N     49.55000000    28.67000000    11.98000000
   C     50.58000000    28.11000000    12.83000000
   C     51.88000000    28.91000000    12.76000000
   O     52.94000000    28.31000000    12.61000000
   C     50.76000000    26.62000000    12.61000000
   C     49.47000000    25.82000000    12.81000000
   C     49.05000000    25.81000000    14.27000000
   O     49.88000000    25.89000000    15.20000000
   O     47.84000000    25.84000000    14.58000000
   H     49.37000000    28.15000000    11.13000000
   H     50.34000000    28.16000000    13.89000000
   H     51.54000000    26.29000000    13.29000000
   H     51.06000000    26.50000000    11.57000000
   H     49.68000000    24.77000000    12.57000000
   H     48.73000000    26.18000000    12.10000000
   N     51.81000000    30.18000000    13.14000000
   C     52.89000000    31.12000000    13.35000000
   H     53.74500000    30.83300000    12.73800000
   H     52.56200000    32.12000000    13.06800000
   H     53.17800000    31.11500000    14.40100000
   H     50.87000000    30.52000000    13.31000000
  Ca     53.49000000    25.55000000     6.44000000
   O     51.16000000    26.78000000     5.86000000
   H     50.29000000    27.01000000     6.17000000
   H     51.11000000    26.89000000     4.91000000
   O     55.43000000    27.21000000     7.33000000
   H     55.17000000    28.13000000     7.26000000
   H     56.26000000    27.23000000     7.81000000
   O     54.44000000    24.49000000     8.66000000
   H     55.25000000    24.79000000     9.08000000
   H     54.14000000    23.77000000     9.22000000
   O     54.16000000    27.56000000     4.80000000
   H     53.64000000    27.79000000     4.03000000
   H     54.75000000    28.31000000     4.93000000
   O     53.51000000    22.76000000     6.31000000
   H     53.28000000    21.88000000     6.01000000
   H     54.45000000    22.83000000     6.13000000
   O     51.54000000    24.15000000     7.85000000
   H     51.43000000    23.20000000     7.77000000
   H     50.71000000    24.46000000     8.21000000
   O     52.58000000    24.90000000     4.03000000
   H     53.06000000    25.14000000     3.25000000
   H     51.85000000    24.38000000     3.71000000

Ca 1.00



