%chk=loop1.cluster129.chk
%nprocshared=20
%mem=10GB
%nosave
#b3lyp/svp scf=(tight,noincore,xqc) Test 
#IOP(5/87=12) Density=Current Pop=(MK,readradii) iop(6/33=2) iop(6/42=6)

loop1.cluster129 

   0  1 
   C     47.22000000    39.28000000     5.81000000
   C     47.45000000    38.80000000     4.38000000
   O     48.37000000    39.32000000     3.75000000
   H     46.17200000    39.14300000     6.07500000
   H     47.84500000    38.70400000     6.49200000
   H     47.47800000    40.33600000     5.88500000
   N     46.68000000    37.84000000     3.87000000
   C     46.90000000    37.19000000     2.59000000
   C     46.14000000    37.87000000     1.46000000
   O     44.92000000    37.80000000     1.38000000
   C     46.59000000    35.69000000     2.64000000
   C     45.28000000    35.32000000     3.31000000
   O     44.58000000    34.42000000     2.78000000
   O     44.82000000    35.77000000     4.38000000
   H     45.93000000    37.52000000     4.46000000
   H     47.95000000    37.26000000     2.28000000
   H     47.38000000    35.14000000     3.15000000
   H     46.69000000    35.35000000     1.61000000
   N     46.85000000    38.67000000     0.67000000
   C     46.37000000    39.51000000    -0.41000000
   C     47.40000000    39.63000000    -1.52000000
   O     48.09000000    40.65000000    -1.55000000
   C     46.01000000    40.89000000     0.14000000
   C     44.81000000    41.06000000     1.07000000
   C     43.42000000    40.87000000     0.47000000
   C     42.42000000    41.09000000     1.60000000
   N     41.02000000    40.96000000     1.15000000
   H     47.85000000    38.55000000     0.80000000
   H     45.44000000    39.12000000    -0.81000000
   H     45.81000000    41.49000000    -0.75000000
   H     46.90000000    41.21000000     0.69000000
   H     44.84000000    42.04000000     1.54000000
   H     44.95000000    40.34000000     1.87000000
   H     43.23000000    39.88000000     0.05000000
   H     43.23000000    41.68000000    -0.23000000
   H     42.59000000    42.03000000     2.12000000
   H     42.55000000    40.32000000     2.37000000
   H     40.73000000    41.88000000     0.86000000
   H     40.92000000    40.43000000     0.30000000
   H     40.49000000    40.55000000     1.90000000
   N     47.56000000    38.73000000    -2.50000000
   C     47.48000000    37.29000000    -2.51000000
   C     46.37000000    36.60000000    -1.73000000
   O     46.65000000    35.95000000    -0.73000000
   C     48.90000000    36.77000000    -2.28000000
   C     49.84000000    37.45000000    -1.29000000
   O     50.97000000    37.77000000    -1.71000000
   O     49.59000000    37.55000000    -0.07000000
   H     48.14000000    39.08000000    -3.26000000
   H     47.24000000    37.04000000    -3.54000000
   H     49.42000000    36.85000000    -3.23000000
   H     48.92000000    35.70000000    -2.04000000
   N     45.09000000    36.77000000    -2.06000000
   C     44.65000000    37.46000000    -3.26000000
   C     43.19000000    37.17000000    -3.55000000
   O     42.42000000    38.12000000    -3.48000000
   H     44.37000000    36.50000000    -1.40000000
   H     45.13000000    37.04000000    -4.14000000
   H     44.77000000    38.54000000    -3.18000000
   N     42.76000000    35.95000000    -3.87000000
   C     43.54000000    34.73000000    -3.95000000
   C     43.50000000    33.94000000    -2.65000000
   O     42.52000000    33.26000000    -2.33000000
   C     43.22000000    33.97000000    -5.23000000
   C     44.15000000    32.77000000    -5.37000000
   O     45.33000000    32.89000000    -5.00000000
   O     43.74000000    31.75000000    -5.97000000
   H     41.75000000    35.85000000    -3.84000000
   H     44.58000000    34.98000000    -4.17000000
   H     43.20000000    34.61000000    -6.11000000
   H     42.22000000    33.54000000    -5.13000000
   N     44.58000000    34.03000000    -1.88000000
   C     44.67000000    33.63000000    -0.49000000
   C     45.73000000    32.64000000    -0.04000000
   O     45.49000000    31.72000000     0.75000000
   H     45.42000000    34.54000000    -2.13000000
   H     43.75000000    33.25000000    -0.04000000
   H     44.91000000    34.52000000     0.10000000
   N     46.95000000    32.87000000    -0.52000000
   C     48.22000000    32.27000000    -0.16000000
   C     49.26000000    33.34000000     0.14000000
   O     50.00000000    33.83000000    -0.71000000
   C     48.78000000    31.30000000    -1.20000000
   C     47.88000000    30.14000000    -1.61000000
   O     49.94000000    30.66000000    -0.73000000
   H     47.05000000    33.61000000    -1.20000000
   H     48.09000000    31.77000000     0.79000000
   H     48.89000000    31.94000000    -2.08000000
   H     50.20000000    29.98000000    -1.35000000
   H     48.24000000    29.53000000    -2.44000000
   H     47.81000000    29.47000000    -0.75000000
   H     46.88000000    30.54000000    -1.78000000
   N     49.56000000    33.53000000     1.43000000
   C     50.41000000    34.59000000     1.94000000
   C     51.79000000    34.76000000     1.33000000
   O     52.32000000    35.86000000     1.16000000
   C     50.52000000    34.61000000     3.46000000
   C     51.24000000    35.75000000     4.17000000
   C     51.10000000    33.31000000     4.00000000
   C     50.56000000    37.09000000     3.90000000
   H     49.00000000    32.99000000     2.08000000
   H     49.79000000    35.45000000     1.70000000
   H     49.49000000    34.69000000     3.82000000
   H     52.28000000    35.86000000     3.86000000
   H     51.31000000    35.51000000     5.23000000
   H     52.04000000    32.98000000     3.56000000
   H     51.31000000    33.47000000     5.06000000
   H     50.46000000    32.43000000     3.92000000
   H     51.26000000    37.82000000     4.31000000
   H     50.41000000    37.26000000     2.84000000
   H     49.62000000    37.22000000     4.43000000
   N     52.55000000    33.69000000     1.11000000
   C     53.86000000    33.46000000     0.54000000
   C     55.01000000    34.07000000     1.34000000
   O     56.05000000    33.42000000     1.43000000
   C     53.89000000    33.89000000    -0.93000000
   C     55.12000000    33.48000000    -1.73000000
   O     54.00000000    35.30000000    -0.92000000
   H     52.02000000    32.84000000     1.29000000
   H     54.03000000    32.40000000     0.38000000
   H     52.93000000    33.58000000    -1.33000000
   H     53.37000000    35.60000000    -1.58000000
   H     55.92000000    33.12000000    -1.09000000
   H     54.79000000    32.61000000    -2.29000000
   H     55.44000000    34.24000000    -2.44000000
   N     54.79000000    35.13000000     2.11000000
   C     55.65000000    35.81000000     3.07000000
   C     56.95000000    36.32000000     2.46000000
   O     57.19000000    36.20000000     1.26000000
   C     55.76000000    35.01000000     4.36000000
   C     56.05000000    35.87000000     5.59000000
   O     56.84000000    34.13000000     4.18000000
   H     53.84000000    35.45000000     1.99000000
   H     55.15000000    36.73000000     3.36000000
   H     54.83000000    34.48000000     4.59000000
   H     56.54000000    33.60000000     3.43000000
   H     55.98000000    35.25000000     6.49000000
   H     57.02000000    36.36000000     5.63000000
   H     55.39000000    36.72000000     5.75000000
   N     57.84000000    36.96000000     3.22000000
   C     59.14000000    37.44000000     2.82000000
   C     59.21000000    38.76000000     2.05000000
   O     59.95000000    38.86000000     1.07000000
   C     60.08000000    37.48000000     4.02000000
   C     60.07000000    36.33000000     5.02000000
   C     60.28000000    34.93000000     4.47000000
   C     59.80000000    33.92000000     5.51000000
   N     60.25000000    32.54000000     5.25000000
   H     57.57000000    37.09000000     4.18000000
   H     59.61000000    36.66000000     2.22000000
   H     59.98000000    38.41000000     4.58000000
   H     61.06000000    37.52000000     3.54000000
   H     59.16000000    36.40000000     5.61000000
   H     60.79000000    36.64000000     5.78000000
   H     61.35000000    34.76000000     4.37000000
   H     59.76000000    34.86000000     3.51000000
   H     58.74000000    34.09000000     5.35000000
   H     60.14000000    34.14000000     6.52000000
   H     60.00000000    32.18000000     4.34000000
   H     61.26000000    32.52000000     5.31000000
   H     59.85000000    31.95000000     5.97000000
   N     58.67000000    39.89000000     2.50000000
   C     57.67000000    40.25000000     3.49000000
   C     57.87000000    39.72000000     4.90000000
   O     57.15000000    38.80000000     5.27000000
   C     56.30000000    40.03000000     2.85000000
   C     55.07000000    40.53000000     3.60000000
   C     53.86000000    40.03000000     2.82000000
   O     53.31000000    38.92000000     2.94000000
   O     53.40000000    40.78000000     1.93000000
   H     59.02000000    40.65000000     1.94000000
   H     57.69000000    41.34000000     3.51000000
   H     56.18000000    38.96000000     2.66000000
   H     56.21000000    40.57000000     1.91000000
   H     55.03000000    41.61000000     3.72000000
   H     55.06000000    40.07000000     4.59000000
   N     58.68000000    40.44000000     5.67000000
   C     58.73000000    40.36000000     7.12000000
   H     58.82600000    41.36300000     7.53600000
   H     57.81400000    39.90000000     7.49100000
   H     59.58700000    39.75900000     7.42200000
   H     59.33000000    41.09000000     5.25000000
  Ca     51.99000000    38.68000000     0.76000000
   O     53.47000000    39.96000000    -0.89000000
   H     54.41000000    39.79000000    -0.85000000
   H     53.38000000    40.68000000    -1.51000000
   O     50.44000000    40.17000000     2.41000000
   H     49.52000000    40.18000000     2.67000000
   H     50.80000000    40.98000000     2.75000000
   O     50.74000000    40.69000000    -0.43000000
   H     50.84000000    41.62000000    -0.64000000
   H     49.79000000    40.55000000    -0.39000000
   O     54.62000000    37.74000000     0.58000000
   H     55.51000000    38.10000000     0.57000000
   H     54.70000000    36.89000000     0.16000000

Ca 1.00



