%chk=loop2.cluster88.chk
%nprocshared=20
%mem=10GB
%nosave
#b3lyp/svp scf=(tight,noincore,xqc) Test 
#IOP(5/87=12) Density=Current Pop=(MK,readradii) iop(6/33=2) iop(6/42=6)

loop2.cluster88 

   -2  1 
   C     73.60000000    39.62000000    39.48000000
   C     72.67000000    39.44000000    38.30000000
   O     71.54000000    39.03000000    38.56000000
   H     74.48000000    40.18100000    39.16600000
   H     73.08400000    40.16700000    40.27000000
   H     73.90700000    38.64300000    39.85400000
   N     73.16000000    39.54000000    37.06000000
   C     72.35000000    39.25000000    35.89000000
   C     71.30000000    40.27000000    35.48000000
   O     71.02000000    40.51000000    34.31000000
   C     73.27000000    38.93000000    34.72000000
   C     74.38000000    39.93000000    34.44000000
   O     74.98000000    40.54000000    35.35000000
   O     74.61000000    40.17000000    33.23000000
   H     74.07000000    39.91000000    36.84000000
   H     71.92000000    38.25000000    35.95000000
   H     72.68000000    38.89000000    33.80000000
   H     73.71000000    37.94000000    34.87000000
   N     70.59000000    40.79000000    36.48000000
   C     69.60000000    41.85000000    36.36000000
   C     69.76000000    42.83000000    37.51000000
   O     69.86000000    42.28000000    38.60000000
   C     68.15000000    41.40000000    36.25000000
   H     70.78000000    40.42000000    37.40000000
   H     69.99000000    42.37000000    35.48000000
   H     67.85000000    40.69000000    37.03000000
   H     67.42000000    42.20000000    36.28000000
   H     67.91000000    40.97000000    35.28000000
   N     69.89000000    44.15000000    37.33000000
   C     69.60000000    44.83000000    36.09000000
   C     70.84000000    45.42000000    35.44000000
   O     71.70000000    45.93000000    36.15000000
   C     68.63000000    45.99000000    36.27000000
   C     67.26000000    45.46000000    36.70000000
   O     66.91000000    45.48000000    37.90000000
   O     66.50000000    45.01000000    35.81000000
   H     70.13000000    44.68000000    38.16000000
   H     69.22000000    44.24000000    35.25000000
   H     68.53000000    46.62000000    35.39000000
   H     69.03000000    46.59000000    37.09000000
   N     70.90000000    45.57000000    34.11000000
   C     72.02000000    46.13000000    33.39000000
   C     73.18000000    45.15000000    33.47000000
   O     73.04000000    44.06000000    32.92000000
   H     70.06000000    45.37000000    33.58000000
   H     72.37000000    47.13000000    33.65000000
   H     71.68000000    46.19000000    32.35000000
   N     74.31000000    45.42000000    34.13000000
   C     74.63000000    46.65000000    34.83000000
   C     75.03000000    46.40000000    36.27000000
   O     75.71000000    47.22000000    36.89000000
   C     75.67000000    47.53000000    34.14000000
   C     75.26000000    47.73000000    32.68000000
   N     75.95000000    47.10000000    31.72000000
   O     74.29000000    48.40000000    32.35000000
   H     75.02000000    44.70000000    34.08000000
   H     73.70000000    47.19000000    35.01000000
   H     76.59000000    46.95000000    34.14000000
   H     75.71000000    48.49000000    34.64000000
   H     76.82000000    46.66000000    31.96000000
   H     75.63000000    47.16000000    30.77000000
   N     74.59000000    45.26000000    36.82000000
   C     74.77000000    44.86000000    38.20000000
   C     73.92000000    45.58000000    39.23000000
   O     74.21000000    45.45000000    40.42000000
   H     74.07000000    44.63000000    36.23000000
   H     75.80000000    44.98000000    38.54000000
   H     74.53000000    43.81000000    38.36000000
   N     72.95000000    46.33000000    38.71000000
   C     72.12000000    47.22000000    39.50000000
   C     71.06000000    46.47000000    40.30000000
   O     70.61000000    45.41000000    39.87000000
   C     71.43000000    48.30000000    38.67000000
   C     70.93000000    49.50000000    39.47000000
   O     72.35000000    48.72000000    37.69000000
   H     72.76000000    46.31000000    37.72000000
   H     72.74000000    47.68000000    40.26000000
   H     70.56000000    47.77000000    38.28000000
   H     73.16000000    49.01000000    38.12000000
   H     70.38000000    50.18000000    38.83000000
   H     70.21000000    49.27000000    40.26000000
   H     71.78000000    49.98000000    39.96000000
   N     70.63000000    46.92000000    41.48000000
   C     69.86000000    46.14000000    42.43000000
   C     68.92000000    47.04000000    43.22000000
   O     69.18000000    48.22000000    43.42000000
   C     70.74000000    45.27000000    43.33000000
   C     71.31000000    44.02000000    42.67000000
   C     71.83000000    46.09000000    44.01000000
   C     70.28000000    42.99000000    42.24000000
   H     70.94000000    47.87000000    41.64000000
   H     69.16000000    45.47000000    41.93000000
   H     70.13000000    44.91000000    44.15000000
   H     72.01000000    43.55000000    43.37000000
   H     71.87000000    44.28000000    41.77000000
   H     72.21000000    45.44000000    44.80000000
   H     72.69000000    46.29000000    43.37000000
   H     71.41000000    46.98000000    44.48000000
   H     70.87000000    42.15000000    41.87000000
   H     69.66000000    42.66000000    43.07000000
   H     69.63000000    43.45000000    41.49000000
   N     67.83000000    46.42000000    43.67000000
   C     66.61000000    47.09000000    44.09000000
   C     65.86000000    46.24000000    45.09000000
   O     65.49000000    45.09000000    44.84000000
   C     65.77000000    47.43000000    42.86000000
   C     65.71000000    46.34000000    41.81000000
   O     66.60000000    46.05000000    40.98000000
   O     64.68000000    45.65000000    41.65000000
   H     67.76000000    45.43000000    43.53000000
   H     66.89000000    48.04000000    44.55000000
   H     66.13000000    48.36000000    42.42000000
   H     64.72000000    47.64000000    43.07000000
   N     65.56000000    46.74000000    46.29000000
   C     64.90000000    45.94000000    47.30000000
   C     65.44000000    44.54000000    47.56000000
   O     66.62000000    44.38000000    47.87000000
   C     64.79000000    46.76000000    48.58000000
   C     64.08000000    46.11000000    49.74000000
   C     64.72000000    45.26000000    50.65000000
   C     62.69000000    46.20000000    49.88000000
   C     64.03000000    44.61000000    51.69000000
   C     61.97000000    45.37000000    50.76000000
   C     62.64000000    44.59000000    51.72000000
   H     65.85000000    47.69000000    46.50000000
   H     63.88000000    45.95000000    46.90000000
   H     64.23000000    47.67000000    48.39000000
   H     65.79000000    47.12000000    48.84000000
   H     65.79000000    45.16000000    50.58000000
   H     62.11000000    46.75000000    49.16000000
   H     64.54000000    44.03000000    52.44000000
   H     60.90000000    45.48000000    50.76000000
   H     62.14000000    43.94000000    52.42000000
   N     64.52000000    43.57000000    47.61000000
   C     64.94000000    42.24000000    47.99000000
   C     65.93000000    41.53000000    47.08000000
   O     66.61000000    40.61000000    47.54000000
   C     63.65000000    41.44000000    48.16000000
   C     62.49000000    42.42000000    48.27000000
   C     63.07000000    43.62000000    47.53000000
   H     65.38000000    42.30000000    48.98000000
   H     63.52000000    40.86000000    47.25000000
   H     63.69000000    40.90000000    49.11000000
   H     61.65000000    42.07000000    47.66000000
   H     62.28000000    42.54000000    49.33000000
   H     62.77000000    43.49000000    46.49000000
   H     62.61000000    44.53000000    47.91000000
   N     66.10000000    41.95000000    45.83000000
   C     66.89000000    41.21000000    44.88000000
   C     68.40000000    41.26000000    45.11000000
   O     69.11000000    40.62000000    44.34000000
   C     66.51000000    41.69000000    43.48000000
   C     65.03000000    41.42000000    43.20000000
   C     64.80000000    41.39000000    41.69000000
   O     64.78000000    40.29000000    41.09000000
   O     64.51000000    42.42000000    41.05000000
   H     65.56000000    42.74000000    45.50000000
   H     66.71000000    40.13000000    44.93000000
   H     67.08000000    41.26000000    42.65000000
   H     66.81000000    42.73000000    43.42000000
   H     64.38000000    42.19000000    43.61000000
   H     64.85000000    40.45000000    43.65000000
   N     68.92000000    42.07000000    46.04000000
   C     70.32000000    42.21000000    46.38000000
   H     70.86700000    42.59100000    45.51700000
   H     70.42500000    42.90700000    47.21200000
   H     70.72400000    41.23900000    46.66600000
   H     68.30000000    42.65000000    46.59000000
  Ca     65.04000000    44.43000000    39.41000000
   O     65.55000000    41.97000000    38.19000000
   H     65.76000000    41.39000000    38.92000000
   H     65.79000000    41.47000000    37.41000000
   O     67.45000000    43.46000000    40.38000000
   H     68.22000000    43.27000000    39.84000000
   H     67.60000000    44.35000000    40.70000000
   O     62.37000000    43.67000000    39.07000000
   H     61.96000000    44.46000000    39.41000000
   H     62.31000000    43.75000000    38.12000000
   O     64.29000000    44.21000000    36.80000000
   H     65.04000000    44.55000000    36.33000000
   H     63.54000000    44.69000000    36.45000000

Ca 1.00



