%chk=loop3.cluster32.chk
%nprocshared=20
%mem=10GB
%nosave
#b3lyp/svp scf=(tight,noincore,xqc) Test 
#IOP(5/87=12) Density=Current Pop=(MK,readradii) iop(6/33=2) iop(6/42=6)

loop3.cluster32 

   0  1 
   C     60.74000000    45.35000000    40.35000000
   C     59.88000000    44.92000000    41.53000000
   O     60.01000000    43.76000000    41.92000000
   H     61.71900000    44.87700000    40.42300000
   H     60.25900000    45.04700000    39.42000000
   H     60.85900000    46.43300000    40.36200000
   N     58.99000000    45.75000000    42.08000000
   C     58.14000000    45.39000000    43.19000000
   C     57.12000000    44.34000000    42.76000000
   O     56.40000000    44.63000000    41.80000000
   C     57.52000000    46.69000000    43.71000000
   C     56.51000000    46.49000000    44.83000000
   O     55.85000000    47.51000000    45.15000000
   O     56.51000000    45.46000000    45.53000000
   H     58.95000000    46.72000000    41.79000000
   H     58.79000000    45.01000000    43.97000000
   H     57.08000000    47.25000000    42.89000000
   H     58.31000000    47.30000000    44.15000000
   N     57.19000000    43.14000000    43.35000000
   C     56.51000000    41.98000000    42.80000000
   C     55.11000000    41.74000000    43.36000000
   O     54.16000000    41.56000000    42.61000000
   C     57.32000000    40.69000000    42.92000000
   C     58.63000000    40.77000000    42.15000000
   C     58.43000000    40.57000000    40.65000000
   C     59.58000000    41.19000000    39.85000000
   N     59.03000000    41.67000000    38.57000000
   H     57.85000000    42.96000000    44.09000000
   H     56.24000000    42.23000000    41.77000000
   H     56.76000000    39.93000000    42.39000000
   H     57.42000000    40.42000000    43.97000000
   H     59.18000000    39.85000000    42.37000000
   H     59.16000000    41.64000000    42.51000000
   H     57.54000000    41.15000000    40.40000000
   H     58.20000000    39.53000000    40.42000000
   H     60.37000000    40.50000000    39.55000000
   H     60.08000000    42.04000000    40.32000000
   H     59.69000000    42.31000000    38.15000000
   H     58.81000000    40.93000000    37.92000000
   H     58.16000000    42.15000000    38.76000000
   N     54.87000000    42.02000000    44.64000000
   C     53.61000000    41.98000000    45.35000000
   C     52.97000000    43.36000000    45.44000000
   O     51.91000000    43.58000000    46.01000000
   C     53.71000000    41.33000000    46.72000000
   C     54.76000000    41.97000000    47.62000000
   O     54.94000000    41.50000000    48.76000000
   O     55.47000000    42.90000000    47.18000000
   H     55.66000000    42.27000000    45.22000000
   H     52.90000000    41.39000000    44.77000000
   H     53.92000000    40.26000000    46.68000000
   H     52.74000000    41.38000000    47.22000000
   N     53.62000000    44.37000000    44.84000000
   C     53.10000000    45.71000000    44.70000000
   C     52.59000000    46.38000000    45.97000000
   O     51.46000000    46.85000000    46.07000000
   H     54.51000000    44.10000000    44.44000000
   H     52.21000000    45.68000000    44.07000000
   H     53.87000000    46.33000000    44.23000000
   N     53.49000000    46.47000000    46.95000000
   C     53.30000000    47.12000000    48.23000000
   C     54.05000000    48.43000000    48.43000000
   O     54.09000000    49.03000000    49.50000000
   C     53.45000000    46.13000000    49.38000000
   C     54.73000000    45.31000000    49.55000000
   N     54.65000000    44.41000000    50.54000000
   O     55.68000000    45.42000000    48.78000000
   H     54.38000000    46.04000000    46.79000000
   H     52.27000000    47.48000000    48.25000000
   H     52.66000000    45.38000000    49.30000000
   H     53.25000000    46.66000000    50.31000000
   H     53.79000000    44.37000000    51.07000000
   H     55.47000000    43.84000000    50.63000000
   N     54.69000000    48.96000000    47.38000000
   C     55.40000000    50.22000000    47.41000000
   C     56.89000000    50.30000000    47.72000000
   O     57.46000000    51.36000000    47.95000000
   H     54.85000000    48.41000000    46.54000000
   H     54.83000000    50.92000000    48.02000000
   H     55.21000000    50.52000000    46.38000000
   N     57.53000000    49.13000000    47.79000000
   C     58.94000000    49.00000000    48.11000000
   C     59.51000000    47.79000000    47.39000000
   O     58.92000000    46.72000000    47.28000000
   C     59.13000000    48.99000000    49.63000000
   C     58.73000000    47.72000000    50.34000000
   C     57.46000000    47.71000000    50.93000000
   C     59.56000000    46.60000000    50.45000000
   C     57.08000000    46.63000000    51.75000000
   C     59.18000000    45.52000000    51.27000000
   C     57.89000000    45.49000000    51.85000000
   O     57.53000000    44.38000000    52.56000000
   H     57.02000000    48.27000000    47.97000000
   H     59.51000000    49.84000000    47.71000000
   H     58.46000000    49.78000000    49.93000000
   H     60.15000000    49.32000000    49.83000000
   H     56.83000000    48.58000000    50.95000000
   H     60.52000000    46.48000000    49.97000000
   H     56.10000000    46.64000000    52.19000000
   H     59.75000000    44.61000000    51.29000000
   H     58.16000000    43.68000000    52.40000000
   N     60.79000000    47.96000000    47.04000000
   C     61.65000000    46.89000000    46.60000000
   C     62.51000000    46.28000000    47.71000000
   O     62.85000000    47.03000000    48.62000000
   C     62.52000000    47.26000000    45.40000000
   C     61.89000000    48.27000000    44.45000000
   C     63.00000000    46.02000000    44.64000000
   C     62.82000000    48.87000000    43.40000000
   H     61.13000000    48.90000000    47.13000000
   H     60.98000000    46.15000000    46.18000000
   H     63.41000000    47.72000000    45.82000000
   H     61.48000000    49.16000000    44.93000000
   H     61.08000000    47.73000000    43.97000000
   H     62.18000000    45.50000000    44.17000000
   H     63.74000000    46.28000000    43.89000000
   H     63.48000000    45.35000000    45.36000000
   H     63.60000000    49.40000000    43.94000000
   H     63.42000000    48.16000000    42.83000000
   H     62.27000000    49.52000000    42.72000000
   N     62.92000000    45.02000000    47.63000000
   C     63.87000000    44.32000000    48.48000000
   C     64.82000000    43.39000000    47.75000000
   O     64.60000000    43.07000000    46.58000000
   C     63.19000000    43.48000000    49.55000000
   O     62.43000000    42.47000000    48.94000000
   H     62.49000000    44.52000000    46.86000000
   H     64.49000000    45.05000000    49.00000000
   H     62.53000000    44.10000000    50.16000000
   H     63.90000000    43.03000000    50.25000000
   H     62.52000000    41.69000000    49.49000000
   N     65.88000000    42.92000000    48.41000000
   C     66.93000000    42.08000000    47.89000000
   C     66.49000000    40.86000000    47.09000000
   O     67.13000000    40.53000000    46.09000000
   C     67.93000000    41.72000000    49.00000000
   H     65.86000000    43.07000000    49.41000000
   H     67.38000000    42.74000000    47.15000000
   H     68.38000000    42.68000000    49.26000000
   H     67.53000000    41.12000000    49.82000000
   H     68.73000000    41.14000000    48.55000000
   N     65.39000000    40.24000000    47.51000000
   C     64.80000000    39.18000000    46.72000000
   C     64.17000000    39.62000000    45.40000000
   O     64.26000000    38.85000000    44.45000000
   C     63.92000000    38.41000000    47.70000000
   H     64.98000000    40.60000000    48.36000000
   H     65.65000000    38.55000000    46.47000000
   H     63.12000000    39.07000000    48.03000000
   H     63.56000000    37.49000000    47.24000000
   H     64.51000000    38.12000000    48.58000000
   N     63.59000000    40.82000000    45.30000000
   C     62.98000000    41.36000000    44.11000000
   C     63.99000000    41.94000000    43.13000000
   O     63.88000000    41.64000000    41.94000000
   C     61.85000000    42.29000000    44.56000000
   C     60.74000000    41.73000000    45.45000000
   C     59.57000000    42.68000000    45.63000000
   O     58.40000000    42.27000000    45.75000000
   O     59.77000000    43.89000000    45.89000000
   H     63.66000000    41.41000000    46.12000000
   H     62.53000000    40.48000000    43.65000000
   H     61.40000000    42.59000000    43.62000000
   H     62.30000000    43.21000000    44.92000000
   H     60.95000000    41.39000000    46.46000000
   H     60.42000000    40.82000000    44.94000000
   N     65.06000000    42.62000000    43.53000000
   C     66.01000000    43.08000000    42.54000000
   H     66.95300000    42.54900000    42.66800000
   H     65.61800000    42.88700000    41.54200000
   H     66.17600000    44.15000000    42.66500000
   H     65.16000000    42.81000000    44.52000000
  Ca     57.66000000    44.23000000    47.41000000
   O     59.91000000    43.87000000    48.87000000
   H     60.84000000    43.86000000    48.62000000
   H     59.80000000    43.10000000    49.43000000
   O     57.29000000    42.63000000    49.56000000
   H     56.54000000    42.09000000    49.30000000
   H     57.74000000    42.11000000    50.22000000

Ca 1.00



