%chk=loop4.cluster141.chk
%nprocshared=20
%mem=10GB
%nosave
#b3lyp/svp scf=(tight,noincore,xqc) Test 
#IOP(5/87=12) Density=Current Pop=(MK,readradii) iop(6/33=2) iop(6/42=6)

loop4.cluster141 

   -3  1 
   C     50.50000000    36.77000000    30.51000000
   C     51.47000000    37.89000000    30.16000000
   O     52.57000000    37.54000000    29.75000000
   H     49.57100000    36.90800000    29.95600000
   H     50.94200000    35.81000000    30.24400000
   H     50.29100000    36.79100000    31.58000000
   N     51.00000000    39.14000000    30.26000000
   C     51.72000000    40.36000000    29.95000000
   C     52.70000000    40.20000000    28.79000000
   O     53.88000000    39.87000000    28.88000000
   C     52.33000000    41.09000000    31.14000000
   C     53.28000000    40.17000000    31.90000000
   O     52.83000000    39.40000000    32.79000000
   O     54.50000000    40.22000000    31.66000000
   H     50.04000000    39.14000000    30.56000000
   H     50.93000000    41.01000000    29.60000000
   H     51.56000000    41.48000000    31.81000000
   H     52.94000000    41.91000000    30.77000000
   N     52.10000000    40.47000000    27.63000000
   C     52.65000000    40.49000000    26.29000000
   C     54.03000000    41.11000000    26.10000000
   O     54.63000000    41.01000000    25.04000000
   C     52.45000000    39.16000000    25.57000000
   C     51.05000000    38.57000000    25.49000000
   C     53.46000000    38.11000000    26.05000000
   C     50.54000000    38.08000000    26.84000000
   H     51.11000000    40.63000000    27.75000000
   H     52.13000000    41.25000000    25.71000000
   H     52.71000000    39.36000000    24.53000000
   H     51.09000000    37.67000000    24.86000000
   H     50.35000000    39.26000000    25.02000000
   H     53.32000000    37.13000000    25.59000000
   H     54.47000000    38.38000000    25.76000000
   H     53.37000000    37.90000000    27.11000000
   H     49.81000000    37.28000000    26.71000000
   H     51.28000000    37.62000000    27.49000000
   H     49.97000000    38.86000000    27.36000000
   N     54.40000000    42.07000000    26.96000000
   C     55.45000000    43.03000000    26.68000000
   C     56.83000000    42.41000000    26.75000000
   O     57.22000000    41.89000000    27.80000000
   C     55.38000000    44.19000000    27.67000000
   C     55.19000000    44.00000000    29.16000000
   O     55.13000000    45.03000000    29.87000000
   O     55.06000000    42.88000000    29.71000000
   H     53.77000000    42.29000000    27.71000000
   H     55.24000000    43.39000000    25.67000000
   H     54.54000000    44.84000000    27.40000000
   H     56.27000000    44.81000000    27.54000000
   N     57.66000000    42.37000000    25.71000000
   C     57.31000000    42.53000000    24.31000000
   C     58.49000000    42.45000000    23.36000000
   O     59.54000000    42.03000000    23.83000000
   H     58.59000000    42.02000000    25.91000000
   H     56.76000000    43.46000000    24.15000000
   H     56.70000000    41.70000000    23.96000000
   N     58.28000000    42.65000000    22.05000000
   C     57.01000000    43.04000000    21.46000000
   C     56.02000000    41.91000000    21.21000000
   O     54.84000000    42.23000000    21.16000000
   C     57.08000000    43.94000000    20.23000000
   C     58.13000000    43.57000000    19.19000000
   O     59.32000000    43.95000000    19.29000000
   O     57.84000000    42.96000000    18.14000000
   H     59.07000000    42.50000000    21.45000000
   H     56.54000000    43.63000000    22.24000000
   H     57.25000000    44.97000000    20.57000000
   H     56.10000000    44.05000000    19.77000000
   N     56.37000000    40.63000000    21.02000000
   C     57.63000000    39.96000000    20.81000000
   C     57.42000000    38.63000000    20.11000000
   O     56.31000000    38.30000000    19.72000000
   H     55.50000000    40.14000000    20.88000000
   H     58.09000000    39.71000000    21.77000000
   H     58.25000000    40.67000000    20.27000000
   N     58.45000000    37.78000000    19.98000000
   C     58.35000000    36.55000000    19.23000000
   C     57.78000000    35.38000000    20.04000000
   O     57.84000000    34.25000000    19.57000000
   C     59.67000000    36.19000000    18.56000000
   C     60.10000000    37.31000000    17.62000000
   C     61.28000000    36.87000000    16.77000000
   N     62.43000000    37.55000000    16.67000000
   O     61.21000000    35.80000000    16.16000000
   H     59.27000000    38.05000000    20.51000000
   H     57.54000000    36.56000000    18.50000000
   H     59.49000000    35.25000000    18.04000000
   H     60.39000000    35.95000000    19.35000000
   H     60.37000000    38.15000000    18.27000000
   H     59.30000000    37.68000000    16.99000000
   H     62.60000000    38.38000000    17.22000000
   H     63.16000000    37.07000000    16.17000000
   N     57.26000000    35.69000000    21.23000000
   C     56.42000000    34.80000000    22.00000000
   C     57.15000000    34.23000000    23.21000000
   O     56.47000000    33.67000000    24.08000000
   C     55.06000000    35.45000000    22.23000000
   C     54.30000000    35.64000000    20.93000000
   C     55.03000000    36.72000000    23.08000000
   H     57.25000000    36.65000000    21.55000000
   H     56.28000000    33.88000000    21.43000000
   H     54.51000000    34.73000000    22.83000000
   H     54.64000000    36.51000000    20.36000000
   H     54.40000000    34.82000000    20.22000000
   H     53.24000000    35.74000000    21.18000000
   H     53.98000000    36.83000000    23.37000000
   H     55.71000000    36.63000000    23.92000000
   H     55.38000000    37.57000000    22.49000000
   N     58.47000000    34.32000000    23.35000000
   C     59.25000000    33.43000000    24.18000000
   C     60.16000000    34.22000000    25.11000000
   O     60.19000000    33.78000000    26.26000000
   C     59.98000000    32.37000000    23.36000000
   C     59.08000000    31.61000000    22.40000000
   N     59.26000000    31.82000000    21.09000000
   O     58.18000000    30.93000000    22.87000000
   H     59.01000000    34.75000000    22.60000000
   H     58.54000000    32.94000000    24.85000000
   H     60.36000000    31.54000000    23.96000000
   H     60.72000000    32.92000000    22.78000000
   H     60.01000000    32.46000000    20.86000000
   H     58.50000000    31.54000000    20.48000000
   N     60.80000000    35.33000000    24.73000000
   C     61.90000000    35.92000000    25.48000000
   C     61.43000000    36.72000000    26.69000000
   O     60.78000000    37.76000000    26.64000000
   C     62.91000000    36.66000000    24.61000000
   C     64.22000000    36.78000000    25.36000000
   C     65.17000000    35.76000000    25.26000000
   C     64.44000000    37.90000000    26.17000000
   C     66.36000000    35.82000000    25.99000000
   C     65.65000000    37.98000000    26.87000000
   C     66.59000000    36.93000000    26.83000000
   O     67.73000000    37.08000000    27.57000000
   H     60.61000000    35.75000000    23.83000000
   H     62.45000000    35.10000000    25.94000000
   H     62.52000000    37.65000000    24.40000000
   H     63.05000000    36.07000000    23.70000000
   H     64.97000000    34.90000000    24.64000000
   H     63.64000000    38.61000000    26.27000000
   H     67.03000000    34.98000000    25.92000000
   H     65.80000000    38.76000000    27.61000000
   H     67.66000000    37.94000000    27.98000000
   N     61.93000000    36.36000000    27.88000000
   C     61.41000000    36.73000000    29.18000000
   C     59.96000000    36.44000000    29.53000000
   O     59.42000000    37.15000000    30.37000000
   C     61.84000000    38.15000000    29.55000000
   C     62.17000000    38.41000000    31.02000000
   C     62.10000000    39.89000000    31.35000000
   O     63.08000000    40.52000000    31.82000000
   O     61.00000000    40.47000000    31.20000000
   H     62.63000000    35.64000000    27.96000000
   H     61.91000000    36.12000000    29.93000000
   H     61.06000000    38.84000000    29.25000000
   H     62.71000000    38.37000000    28.93000000
   H     63.18000000    38.10000000    31.26000000
   H     61.39000000    37.90000000    31.60000000
   N     59.32000000    35.46000000    28.87000000
   C     58.00000000    34.94000000    29.18000000
   C     58.03000000    33.45000000    29.50000000
   O     57.60000000    32.96000000    30.54000000
   C     57.06000000    35.20000000    28.01000000
   C     56.85000000    36.58000000    27.40000000
   C     56.80000000    37.80000000    28.30000000
   O     56.95000000    38.95000000    27.83000000
   O     56.45000000    37.75000000    29.50000000
   H     59.86000000    34.94000000    28.20000000
   H     57.51000000    35.38000000    30.05000000
   H     56.18000000    34.96000000    28.61000000
   H     57.26000000    34.50000000    27.19000000
   H     55.98000000    36.48000000    26.75000000
   H     57.72000000    36.80000000    26.77000000
   N     58.64000000    32.70000000    28.58000000
   C     59.27000000    31.43000000    28.89000000
   H     60.21600000    31.60900000    29.40100000
   H     58.61400000    30.84600000    29.53600000
   H     59.45500000    30.88000000    27.96700000
   H     58.85000000    33.29000000    27.79000000
  Ca     56.13000000    40.57000000    29.73000000
   O     58.59000000    39.69000000    30.35000000
   H     58.83000000    38.77000000    30.24000000
   H     59.39000000    40.11000000    30.66000000
   O     56.88000000    41.85000000    31.99000000
   H     57.52000000    41.91000000    32.69000000
   H     56.13000000    42.36000000    32.31000000

Ca 1.00



