%chk=loop2.cluster210.chk
%nprocshared=20
%mem=10GB
%nosave
#b3lyp/svp scf=(tight,noincore,xqc) Test 
#IOP(5/87=12) Density=Current Pop=(MK,readradii) iop(6/33=2) iop(6/42=6)

loop2.cluster210 

   -2  1 
   C      3.72000000    10.46000000    25.85000000
   C      3.86000000    11.81000000    26.55000000
   O      3.22000000    12.80000000    26.22000000
   H      2.94500000    10.52600000    25.08700000
   H      4.66800000    10.19300000    25.38200000
   H      3.44700000     9.69800000    26.58000000
   N      4.92000000    12.01000000    27.34000000
   C      5.35000000    13.12000000    28.16000000
   C      4.41000000    13.36000000    29.33000000
   O      4.46000000    14.39000000    30.00000000
   C      6.80000000    12.95000000    28.64000000
   C      7.23000000    14.26000000    29.27000000
   O      7.61000000    14.27000000    30.46000000
   O      7.19000000    15.35000000    28.65000000
   H      5.46000000    11.18000000    27.53000000
   H      5.30000000    14.00000000    27.52000000
   H      7.54000000    12.68000000    27.89000000
   H      6.90000000    12.15000000    29.37000000
   N      3.61000000    12.37000000    29.75000000
   C      2.55000000    12.40000000    30.73000000
   C      2.23000000    11.05000000    31.36000000
   O      2.10000000    10.05000000    30.65000000
   C      1.29000000    12.87000000    30.02000000
   H      3.69000000    11.56000000    29.15000000
   H      2.95000000    13.08000000    31.48000000
   H      0.41000000    12.61000000    30.62000000
   H      1.49000000    13.94000000    29.98000000
   H      1.22000000    12.50000000    29.00000000
   N      2.20000000    10.90000000    32.69000000
   C      2.45000000    11.89000000    33.71000000
   C      2.95000000    11.29000000    35.01000000
   O      2.62000000    10.14000000    35.30000000
   C      1.16000000    12.66000000    34.01000000
   C      1.32000000    14.14000000    34.32000000
   O      2.29000000    14.45000000    35.04000000
   O      0.55000000    15.00000000    33.85000000
   H      1.79000000    10.02000000    32.98000000
   H      3.24000000    12.55000000    33.35000000
   H      0.62000000    12.26000000    34.87000000
   H      0.35000000    12.55000000    33.29000000
   N      3.74000000    12.05000000    35.77000000
   C      4.31000000    11.49000000    36.97000000
   C      5.53000000    10.62000000    36.72000000
   O      6.29000000    10.84000000    35.78000000
   H      3.66000000    13.04000000    35.57000000
   H      3.59000000    10.81000000    37.43000000
   H      4.40000000    12.28000000    37.72000000
   N      5.96000000     9.66000000    37.55000000
   C      5.24000000     9.22000000    38.72000000
   C      4.26000000     8.08000000    38.47000000
   O      4.10000000     7.13000000    39.24000000
   C      6.22000000     9.01000000    39.87000000
   C      5.68000000     9.10000000    41.30000000
   N      6.57000000     8.85000000    42.27000000
   O      4.55000000     9.43000000    41.63000000
   H      6.89000000     9.27000000    37.45000000
   H      4.67000000    10.10000000    38.99000000
   H      6.91000000     9.85000000    39.78000000
   H      6.75000000     8.07000000    39.69000000
   H      7.47000000     8.52000000    41.94000000
   H      6.46000000     9.32000000    43.15000000
   N      3.71000000     7.97000000    37.26000000
   C      2.63000000     7.07000000    36.93000000
   C      1.30000000     7.58000000    37.47000000
   O      0.63000000     6.77000000    38.11000000
   H      3.98000000     8.64000000    36.55000000
   H      2.80000000     6.04000000    37.22000000
   H      2.49000000     7.12000000    35.85000000
   N      1.00000000     8.87000000    37.28000000
   C     -0.05000000     9.59000000    37.98000000
   C     -1.00000000    10.24000000    36.98000000
   O     -0.69000000    11.27000000    36.40000000
   C      0.50000000    10.57000000    39.01000000
   C     -0.46000000    11.15000000    40.03000000
   O      1.54000000    10.07000000    39.83000000
   H      1.57000000     9.38000000    36.63000000
   H     -0.68000000     8.84000000    38.46000000
   H      0.90000000    11.36000000    38.37000000
   H      1.93000000    10.75000000    40.39000000
   H     -0.84000000    10.37000000    40.69000000
   H      0.10000000    11.81000000    40.70000000
   H     -1.34000000    11.69000000    39.66000000
   N     -2.17000000     9.64000000    36.72000000
   C     -2.84000000     9.81000000    35.45000000
   C     -4.35000000     9.68000000    35.63000000
   O     -4.79000000     9.08000000    36.60000000
   C     -2.34000000     8.75000000    34.47000000
   C     -1.02000000     9.23000000    33.87000000
   C     -2.08000000     7.38000000    35.09000000
   C     -0.51000000     8.34000000    32.74000000
   H     -2.45000000     8.80000000    37.22000000
   H     -2.81000000    10.80000000    34.98000000
   H     -2.99000000     8.61000000    33.61000000
   H     -0.22000000     9.34000000    34.60000000
   H     -1.25000000    10.24000000    33.52000000
   H     -2.78000000     7.08000000    35.87000000
   H     -2.19000000     6.72000000    34.22000000
   H     -1.08000000     7.38000000    35.53000000
   H     -0.13000000     7.40000000    33.14000000
   H     -1.24000000     8.18000000    31.95000000
   H      0.26000000     8.94000000    32.24000000
   N     -5.10000000    10.17000000    34.64000000
   C     -6.53000000    10.38000000    34.76000000
   C     -7.28000000     9.82000000    33.56000000
   O     -7.25000000    10.38000000    32.47000000
   C     -6.85000000    11.83000000    35.09000000
   C     -5.90000000    12.47000000    36.09000000
   O     -6.01000000    12.28000000    37.32000000
   O     -5.00000000    13.16000000    35.57000000
   H     -4.65000000    10.72000000    33.92000000
   H     -6.92000000     9.85000000    35.63000000
   H     -7.89000000    11.89000000    35.40000000
   H     -6.89000000    12.41000000    34.16000000
   N     -7.83000000     8.60000000    33.60000000
   C     -8.78000000     8.07000000    32.63000000
   C     -8.23000000     8.07000000    31.21000000
   O     -7.30000000     7.28000000    31.05000000
   C     -9.16000000     6.67000000    33.09000000
   C    -10.02000000     5.90000000    32.11000000
   C     -9.53000000     4.80000000    31.40000000
   C    -11.32000000     6.32000000    31.79000000
   C    -10.33000000     4.16000000    30.45000000
   C    -12.16000000     5.68000000    30.87000000
   C    -11.65000000     4.55000000    30.22000000
   H     -7.79000000     8.15000000    34.50000000
   H     -9.63000000     8.75000000    32.63000000
   H     -9.72000000     6.75000000    34.03000000
   H     -8.25000000     6.09000000    33.27000000
   H     -8.56000000     4.39000000    31.63000000
   H    -11.69000000     7.19000000    32.31000000
   H    -10.01000000     3.24000000    29.99000000
   H    -13.13000000     6.06000000    30.57000000
   H    -12.21000000     4.09000000    29.42000000
   N     -8.66000000     8.85000000    30.22000000
   C     -8.22000000     8.67000000    28.85000000
   C     -6.73000000     8.89000000    28.61000000
   O     -6.15000000     8.45000000    27.62000000
   C     -8.99000000     9.75000000    28.09000000
   C    -10.20000000    10.18000000    28.91000000
   C     -9.87000000     9.63000000    30.30000000
   H     -8.58000000     7.70000000    28.50000000
   H     -8.34000000    10.62000000    28.08000000
   H     -9.17000000     9.58000000    27.03000000
   H    -10.28000000    11.26000000    28.96000000
   H    -11.06000000     9.64000000    28.50000000
   H     -9.81000000    10.49000000    30.97000000
   H    -10.64000000     8.94000000    30.64000000
   N     -6.00000000     9.49000000    29.55000000
   C     -4.56000000     9.67000000    29.56000000
   C     -3.93000000     8.29000000    29.56000000
   O     -2.96000000     8.09000000    28.82000000
   C     -4.35000000    10.55000000    30.79000000
   C     -2.90000000    11.02000000    30.91000000
   C     -2.90000000    12.15000000    31.92000000
   O     -3.68000000    12.08000000    32.89000000
   O     -2.33000000    13.26000000    31.77000000
   H     -6.56000000     9.93000000    30.27000000
   H     -4.24000000    10.18000000    28.66000000
   H     -4.64000000    10.03000000    31.70000000
   H     -4.97000000    11.43000000    30.64000000
   H     -2.53000000    11.26000000    29.91000000
   H     -2.27000000    10.21000000    31.28000000
   N     -4.45000000     7.30000000    30.30000000
   C     -3.91000000     5.97000000    30.49000000
   H     -2.95800000     6.03700000    31.01600000
   H     -4.60800000     5.37400000    31.07800000
   H     -3.75600000     5.49800000    29.52000000
   H     -5.35000000     7.54000000    30.69000000
  Ca     -3.59000000    14.49000000    33.85000000
   O     -3.86000000    16.62000000    32.36000000
   H     -4.04000000    17.48000000    32.73000000
   H     -4.26000000    16.63000000    31.49000000
   O     -2.01000000    13.50000000    35.67000000
   H     -2.29000000    13.73000000    36.55000000
   H     -1.58000000    12.65000000    35.76000000
   O     -1.52000000    16.28000000    34.36000000
   H     -0.76000000    15.71000000    34.23000000
   H     -1.15000000    17.16000000    34.47000000
   O     -6.06000000    14.55000000    32.83000000
   H     -6.73000000    15.24000000    32.84000000
   H     -6.33000000    13.97000000    32.11000000

Ca 1.00



