%chk=loop4.cluster135.chk
%nprocshared=20
%mem=10GB
%nosave
#b3lyp/svp scf=(tight,noincore,xqc) Test 
#IOP(5/87=12) Density=Current Pop=(MK,readradii) iop(6/33=2) iop(6/42=6)

loop4.cluster135 

   -3  1 
   C     46.33000000    53.06000000    68.62000000
   C     46.29000000    54.29000000    69.52000000
   O     47.22000000    54.63000000    70.25000000
   H     47.32100000    52.96900000    68.17400000
   H     46.11400000    52.17000000    69.21100000
   H     45.58500000    53.16200000    67.83100000
   N     45.16000000    55.00000000    69.51000000
   C     44.67000000    56.14000000    70.27000000
   C     45.51000000    57.41000000    70.20000000
   O     46.63000000    57.54000000    70.67000000
   C     44.29000000    55.77000000    71.70000000
   C     45.37000000    55.03000000    72.46000000
   O     45.14000000    53.92000000    72.99000000
   O     46.38000000    55.64000000    72.89000000
   H     44.45000000    54.65000000    68.88000000
   H     43.74000000    56.43000000    69.77000000
   H     43.40000000    55.13000000    71.70000000
   H     43.93000000    56.73000000    72.08000000
   N     44.89000000    58.52000000    69.80000000
   C     45.32000000    59.90000000    69.68000000
   C     46.20000000    60.46000000    70.79000000
   O     47.07000000    61.29000000    70.55000000
   C     45.75000000    60.25000000    68.26000000
   C     44.61000000    60.23000000    67.25000000
   C     47.03000000    59.55000000    67.80000000
   C     44.82000000    61.06000000    65.99000000
   H     43.98000000    58.26000000    69.44000000
   H     44.42000000    60.47000000    69.93000000
   H     46.05000000    61.29000000    68.25000000
   H     43.66000000    60.46000000    67.74000000
   H     44.47000000    59.24000000    66.81000000
   H     46.81000000    58.74000000    67.10000000
   H     47.69000000    60.31000000    67.39000000
   H     47.54000000    58.98000000    68.58000000
   H     43.91000000    61.03000000    65.38000000
   H     45.02000000    62.09000000    66.27000000
   H     45.60000000    60.69000000    65.32000000
   N     46.04000000    59.97000000    72.03000000
   C     46.82000000    60.44000000    73.16000000
   C     47.91000000    59.48000000    73.60000000
   O     47.85000000    58.29000000    73.30000000
   C     45.86000000    60.82000000    74.29000000
   C     44.79000000    59.83000000    74.72000000
   O     44.41000000    58.86000000    74.02000000
   O     44.27000000    60.11000000    75.82000000
   H     45.48000000    59.14000000    72.17000000
   H     47.29000000    61.39000000    72.92000000
   H     45.28000000    61.67000000    73.93000000
   H     46.41000000    61.14000000    75.17000000
   N     48.96000000    59.95000000    74.28000000
   C     49.33000000    61.31000000    74.65000000
   C     50.69000000    61.28000000    75.31000000
   O     51.05000000    60.38000000    76.07000000
   H     49.48000000    59.21000000    74.73000000
   H     48.70000000    61.66000000    75.46000000
   H     49.40000000    61.97000000    73.79000000
   N     51.57000000    62.24000000    75.02000000
   C     51.33000000    63.41000000    74.20000000
   C     52.61000000    64.21000000    74.00000000
   O     53.51000000    64.12000000    74.83000000
   C     50.32000000    64.38000000    74.81000000
   C     50.48000000    64.60000000    76.30000000
   O     49.77000000    64.02000000    77.16000000
   O     51.24000000    65.53000000    76.65000000
   H     52.51000000    62.12000000    75.36000000
   H     51.00000000    63.09000000    73.21000000
   H     49.30000000    64.07000000    74.57000000
   H     50.44000000    65.38000000    74.38000000
   N     52.79000000    65.04000000    72.97000000
   C     51.82000000    65.29000000    71.93000000
   C     52.43000000    65.73000000    70.61000000
   O     51.65000000    66.06000000    69.73000000
   H     53.59000000    65.66000000    73.02000000
   H     51.11000000    66.04000000    72.29000000
   H     51.20000000    64.43000000    71.67000000
   N     53.75000000    65.72000000    70.39000000
   C     54.41000000    66.08000000    69.15000000
   C     54.58000000    64.91000000    68.18000000
   O     54.99000000    65.17000000    67.05000000
   C     55.67000000    66.92000000    69.25000000
   C     56.91000000    66.20000000    69.78000000
   C     57.99000000    67.14000000    70.30000000
   N     58.74000000    67.78000000    69.41000000
   O     58.20000000    67.23000000    71.51000000
   H     54.30000000    65.34000000    71.15000000
   H     53.69000000    66.78000000    68.72000000
   H     55.49000000    67.74000000    69.95000000
   H     55.92000000    67.38000000    68.29000000
   H     57.30000000    65.57000000    68.98000000
   H     56.64000000    65.59000000    70.64000000
   H     58.38000000    67.77000000    68.46000000
   H     59.44000000    68.47000000    69.65000000
   N     54.09000000    63.71000000    68.48000000
   C     53.84000000    62.64000000    67.54000000
   C     54.99000000    61.65000000    67.49000000
   O     55.47000000    61.21000000    68.54000000
   C     52.51000000    61.93000000    67.77000000
   C     52.19000000    60.78000000    66.82000000
   C     51.37000000    62.95000000    67.75000000
   H     53.84000000    63.61000000    69.46000000
   H     53.89000000    63.01000000    66.52000000
   H     52.49000000    61.36000000    68.70000000
   H     52.02000000    61.03000000    65.77000000
   H     53.07000000    60.13000000    66.81000000
   H     51.25000000    60.32000000    67.10000000
   H     51.53000000    63.60000000    68.60000000
   H     51.29000000    63.50000000    66.82000000
   H     50.46000000    62.37000000    67.90000000
   N     55.39000000    61.26000000    66.28000000
   C     56.60000000    60.53000000    65.95000000
   C     56.62000000    59.05000000    66.30000000
   O     55.56000000    58.44000000    66.36000000
   C     57.81000000    61.34000000    66.40000000
   C     57.80000000    62.80000000    65.95000000
   N     57.76000000    62.98000000    64.63000000
   O     57.93000000    63.79000000    66.67000000
   H     54.92000000    61.67000000    65.48000000
   H     56.56000000    60.56000000    64.86000000
   H     58.70000000    60.88000000    65.98000000
   H     57.89000000    61.24000000    67.48000000
   H     58.06000000    62.19000000    64.08000000
   H     57.90000000    63.92000000    64.27000000
   N     57.80000000    58.44000000    66.45000000
   C     58.07000000    57.04000000    66.71000000
   C     57.48000000    56.62000000    68.05000000
   O     57.11000000    57.40000000    68.92000000
   C     59.58000000    56.87000000    66.81000000
   C     60.43000000    57.47000000    65.72000000
   C     61.49000000    58.34000000    66.03000000
   C     60.27000000    57.00000000    64.41000000
   C     62.41000000    58.73000000    65.05000000
   C     61.14000000    57.43000000    63.40000000
   C     62.24000000    58.25000000    63.74000000
   O     63.07000000    58.70000000    62.76000000
   H     58.59000000    59.04000000    66.28000000
   H     57.66000000    56.50000000    65.86000000
   H     59.63000000    55.78000000    66.77000000
   H     59.91000000    57.07000000    67.83000000
   H     61.61000000    58.71000000    67.04000000
   H     59.58000000    56.20000000    64.23000000
   H     63.19000000    59.45000000    65.25000000
   H     61.07000000    56.95000000    62.44000000
   H     62.78000000    58.26000000    61.96000000
   N     57.14000000    55.33000000    68.11000000
   C     56.32000000    54.57000000    69.03000000
   C     54.81000000    54.70000000    68.93000000
   O     54.07000000    53.90000000    69.49000000
   C     56.74000000    54.61000000    70.50000000
   C     57.83000000    53.60000000    70.88000000
   C     58.37000000    53.91000000    72.26000000
   O     57.88000000    53.42000000    73.30000000
   O     59.38000000    54.65000000    72.23000000
   H     57.56000000    54.69000000    67.46000000
   H     56.45000000    53.55000000    68.65000000
   H     55.88000000    54.43000000    71.14000000
   H     56.90000000    55.65000000    70.79000000
   H     58.58000000    53.58000000    70.09000000
   H     57.30000000    52.65000000    70.93000000
   N     54.43000000    55.69000000    68.12000000
   C     53.04000000    55.80000000    67.71000000
   C     52.85000000    55.58000000    66.22000000
   O     51.90000000    54.95000000    65.77000000
   C     52.48000000    57.17000000    68.09000000
   C     52.26000000    57.49000000    69.57000000
   C     50.93000000    57.06000000    70.18000000
   O     50.24000000    57.92000000    70.75000000
   O     50.59000000    55.86000000    70.10000000
   H     55.14000000    56.19000000    67.61000000
   H     52.48000000    55.02000000    68.22000000
   H     51.49000000    57.28000000    67.65000000
   H     53.16000000    57.91000000    67.66000000
   H     52.31000000    58.57000000    69.70000000
   H     53.05000000    56.96000000    70.09000000
   N     53.74000000    56.11000000    65.38000000
   C     53.83000000    55.88000000    63.95000000
   H     54.86700000    55.98100000    63.63100000
   H     53.47600000    54.87500000    63.72000000
   H     53.21600000    56.61200000    63.42400000
   H     54.44000000    56.72000000    65.79000000
  Ca     48.58000000    56.24000000    71.93000000
   O     48.95000000    53.73000000    72.40000000
   H     49.44000000    53.31000000    73.11000000
   H     48.14000000    53.21000000    72.34000000
   O     49.98000000    55.94000000    74.06000000
   H     50.20000000    56.50000000    74.81000000
   H     50.71000000    55.33000000    73.99000000

Ca 1.00



