%chk=loop1.cluster81.chk
%nprocshared=20
%mem=10GB
%nosave
#b3lyp/svp scf=(tight,noincore,xqc) Test 
#IOP(5/87=12) Density=Current Pop=(MK,readradii) iop(6/33=2) iop(6/42=6)

loop1.cluster81 

   0  1 
   C     35.53000000    86.67000000   122.21000000
   C     36.27000000    86.18000000   123.44000000
   O     36.83000000    85.09000000   123.43000000
   H     34.63000000    87.20300000   122.51600000
   H     36.17400000    87.34100000   121.64200000
   H     35.25300000    85.81800000   121.58900000
   N     36.21000000    87.00000000   124.49000000
   C     36.83000000    86.78000000   125.79000000
   C     35.91000000    86.31000000   126.90000000
   O     36.38000000    86.36000000   128.04000000
   C     37.61000000    88.04000000   126.15000000
   C     36.93000000    89.40000000   126.02000000
   O     36.94000000    90.09000000   127.07000000
   O     36.48000000    89.81000000   124.93000000
   H     35.72000000    87.86000000   124.28000000
   H     37.60000000    86.03000000   125.60000000
   H     38.31000000    88.07000000   125.32000000
   H     38.11000000    87.89000000   127.10000000
   N     34.65000000    85.93000000   126.68000000
   C     33.53000000    85.90000000   127.59000000
   C     32.57000000    84.73000000   127.39000000
   O     31.53000000    84.96000000   126.79000000
   C     32.75000000    87.20000000   127.40000000
   C     33.64000000    88.42000000   127.58000000
   C     32.82000000    89.71000000   127.61000000
   C     33.70000000    90.95000000   127.73000000
   N     34.48000000    91.23000000   126.51000000
   H     34.41000000    85.82000000   125.70000000
   H     33.88000000    85.79000000   128.62000000
   H     31.91000000    87.29000000   128.10000000
   H     32.27000000    87.13000000   126.42000000
   H     34.41000000    88.48000000   126.82000000
   H     34.01000000    88.22000000   128.59000000
   H     32.05000000    89.60000000   128.38000000
   H     32.26000000    89.87000000   126.69000000
   H     34.41000000    90.78000000   128.54000000
   H     32.99000000    91.75000000   127.93000000
   H     34.66000000    92.22000000   126.43000000
   H     35.41000000    90.84000000   126.58000000
   H     33.99000000    90.97000000   125.67000000
   N     32.86000000    83.47000000   127.72000000
   C     33.75000000    82.97000000   128.74000000
   C     33.46000000    83.60000000   130.10000000
   O     32.67000000    84.52000000   130.26000000
   C     35.19000000    82.94000000   128.22000000
   C     35.38000000    82.32000000   126.84000000
   O     36.29000000    82.77000000   126.12000000
   O     34.63000000    81.39000000   126.47000000
   H     32.13000000    82.81000000   127.45000000
   H     33.50000000    81.92000000   128.89000000
   H     35.91000000    82.44000000   128.88000000
   H     35.44000000    83.99000000   128.10000000
   N     33.93000000    83.05000000   131.22000000
   C     34.94000000    82.01000000   131.33000000
   C     36.30000000    82.68000000   131.46000000
   O     36.36000000    83.91000000   131.46000000
   H     33.68000000    83.54000000   132.07000000
   H     34.92000000    81.34000000   130.47000000
   H     34.70000000    81.43000000   132.22000000
   N     37.37000000    81.92000000   131.71000000
   C     37.46000000    80.48000000   131.79000000
   C     38.66000000    80.04000000   130.97000000
   O     39.77000000    80.56000000   131.02000000
   C     37.62000000    80.16000000   133.28000000
   C     37.29000000    78.69000000   133.48000000
   O     36.13000000    78.27000000   133.26000000
   O     38.27000000    77.96000000   133.75000000
   H     38.24000000    82.41000000   131.87000000
   H     36.56000000    80.02000000   131.38000000
   H     36.80000000    80.72000000   133.72000000
   H     38.50000000    80.60000000   133.75000000
   N     38.50000000    78.98000000   130.17000000
   C     39.49000000    78.32000000   129.34000000
   C     39.82000000    79.11000000   128.07000000
   O     39.15000000    80.08000000   127.73000000
   H     37.61000000    78.52000000   130.20000000
   H     39.15000000    77.34000000   129.00000000
   H     40.41000000    78.30000000   129.91000000
   N     40.88000000    78.71000000   127.37000000
   C     41.36000000    79.35000000   126.16000000
   C     40.53000000    79.02000000   124.93000000
   O     39.86000000    78.00000000   124.88000000
   C     42.84000000    79.07000000   125.94000000
   C     43.25000000    77.60000000   125.83000000
   O     43.47000000    79.57000000   127.10000000
   H     41.39000000    77.88000000   127.65000000
   H     41.29000000    80.43000000   126.32000000
   H     43.21000000    79.62000000   125.08000000
   H     44.40000000    79.35000000   127.06000000
   H     42.45000000    77.07000000   125.32000000
   H     44.23000000    77.47000000   125.37000000
   H     43.37000000    77.23000000   126.84000000
   N     40.66000000    79.90000000   123.94000000
   C     40.14000000    79.66000000   122.61000000
   C     41.22000000    79.02000000   121.76000000
   O     42.19000000    79.69000000   121.41000000
   C     39.39000000    80.87000000   122.06000000
   C     38.89000000    80.59000000   120.65000000
   C     40.13000000    82.20000000   122.24000000
   C     37.98000000    81.69000000   120.11000000
   H     41.29000000    80.69000000   124.00000000
   H     39.34000000    78.93000000   122.72000000
   H     38.56000000    80.97000000   122.75000000
   H     38.32000000    79.66000000   120.75000000
   H     39.72000000    80.33000000   119.99000000
   H     40.36000000    82.33000000   123.30000000
   H     41.09000000    82.18000000   121.73000000
   H     39.51000000    83.00000000   121.84000000
   H     38.54000000    82.63000000   120.07000000
   H     37.65000000    81.53000000   119.09000000
   H     37.10000000    81.81000000   120.74000000
   N     41.01000000    77.81000000   121.23000000
   C     41.63000000    77.34000000   120.00000000
   C     40.60000000    76.83000000   119.01000000
   O     40.89000000    76.29000000   117.95000000
   C     42.69000000    76.29000000   120.31000000
   C     42.23000000    75.07000000   121.11000000
   O     43.62000000    76.81000000   121.23000000
   H     40.44000000    77.11000000   121.66000000
   H     42.09000000    78.22000000   119.55000000
   H     43.23000000    75.88000000   119.45000000
   H     44.10000000    77.60000000   120.98000000
   H     41.51000000    74.51000000   120.52000000
   H     43.06000000    74.39000000   121.27000000
   H     41.81000000    75.35000000   122.08000000
   N     39.34000000    77.24000000   119.22000000
   C     38.12000000    76.82000000   118.57000000
   C     37.84000000    75.33000000   118.74000000
   O     38.80000000    74.65000000   119.08000000
   C     37.96000000    77.21000000   117.11000000
   C     38.08000000    78.70000000   116.82000000
   O     36.78000000    76.82000000   116.43000000
   H     39.22000000    77.79000000   120.06000000
   H     37.27000000    77.29000000   119.06000000
   H     38.73000000    76.65000000   116.58000000
   H     36.64000000    77.33000000   115.63000000
   H     38.40000000    78.82000000   115.78000000
   H     37.11000000    79.17000000   116.98000000
   H     38.86000000    79.04000000   117.50000000
   N     36.67000000    74.73000000   118.51000000
   C     36.49000000    73.29000000   118.48000000
   C     35.34000000    72.74000000   119.31000000
   O     35.36000000    71.55000000   119.60000000
   C     36.49000000    72.83000000   117.02000000
   C     37.76000000    73.09000000   116.21000000
   C     37.59000000    72.43000000   114.84000000
   C     38.81000000    71.96000000   114.07000000
   N     39.67000000    73.05000000   113.58000000
   H     35.91000000    75.35000000   118.25000000
   H     37.31000000    72.84000000   119.04000000
   H     35.80000000    73.58000000   116.62000000
   H     36.06000000    71.84000000   116.91000000
   H     38.67000000    72.66000000   116.64000000
   H     37.79000000    74.17000000   116.07000000
   H     36.86000000    72.93000000   114.20000000
   H     37.10000000    71.50000000   115.12000000
   H     38.47000000    71.39000000   113.20000000
   H     39.37000000    71.30000000   114.73000000
   H     39.21000000    73.42000000   112.76000000
   H     39.79000000    73.70000000   114.35000000
   H     40.62000000    72.79000000   113.36000000
   N     34.35000000    73.39000000   119.94000000
   C     33.82000000    74.73000000   119.78000000
   C     33.75000000    75.24000000   118.35000000
   O     34.07000000    76.41000000   118.16000000
   C     34.39000000    75.68000000   120.83000000
   C     34.26000000    75.12000000   122.24000000
   C     35.07000000    76.08000000   123.09000000
   O     36.22000000    75.70000000   123.42000000
   O     34.48000000    77.09000000   123.52000000
   H     33.86000000    72.80000000   120.59000000
   H     32.76000000    74.71000000   120.03000000
   H     33.85000000    76.62000000   120.77000000
   H     35.41000000    75.97000000   120.56000000
   H     34.54000000    74.06000000   122.26000000
   H     33.22000000    75.18000000   122.58000000
   N     33.24000000    74.45000000   117.40000000
   C     32.85000000    74.92000000   116.08000000
   H     31.99900000    75.59500000   116.17200000
   H     33.68500000    75.44900000   115.62100000
   H     32.57200000    74.06900000   115.45800000
   H     32.89000000    73.56000000   117.72000000
  Ca     34.69000000    78.83000000   125.43000000
   O     32.54000000    79.79000000   124.44000000
   H     32.06000000    80.48000000   124.90000000
   H     31.87000000    79.24000000   124.05000000
   O     35.57000000    80.58000000   123.65000000
   H     35.34000000    81.50000000   123.52000000
   H     36.39000000    80.47000000   123.16000000
   O     33.83000000    79.42000000   128.29000000
   H     34.16000000    80.29000000   128.06000000
   H     32.88000000    79.49000000   128.21000000
   O     35.48000000    76.81000000   127.08000000
   H     35.02000000    76.25000000   127.70000000
   H     36.25000000    76.30000000   126.82000000
   O     37.11000000    78.07000000   124.38000000
   H     37.96000000    77.99000000   124.81000000
   H     36.93000000    77.20000000   124.02000000
   O     36.60000000    79.38000000   127.35000000
   H     36.63000000    78.66000000   127.98000000
   H     37.33000000    79.94000000   127.59000000
   O     32.83000000    77.01000000   125.98000000
   H     31.89000000    77.12000000   126.09000000
   H     32.97000000    76.07000000   126.04000000

Ca 1.00



