%chk=loop3.cluster10.chk
%nprocshared=20
%mem=10GB
%nosave
#b3lyp/svp scf=(tight,noincore,xqc) Test 
#IOP(5/87=12) Density=Current Pop=(MK,readradii) iop(6/33=2) iop(6/42=6)

loop3.cluster10 

   0  1 
   C     86.33000000    38.59000000    42.11000000
   C     85.82000000    38.23000000    43.49000000
   O     86.14000000    37.15000000    43.97000000
   H     87.35500000    38.23600000    41.99800000
   H     85.69900000    38.12100000    41.35500000
   H     86.30500000    39.67200000    41.98400000
   N     84.88000000    39.01000000    44.05000000
   C     84.42000000    38.75000000    45.40000000
   C     83.21000000    37.83000000    45.23000000
   O     82.10000000    38.30000000    45.46000000
   C     84.15000000    39.97000000    46.27000000
   C     83.71000000    39.66000000    47.69000000
   O     84.13000000    38.61000000    48.23000000
   O     82.92000000    40.46000000    48.23000000
   H     84.67000000    39.91000000    43.65000000
   H     85.04000000    38.09000000    46.00000000
   H     83.45000000    40.62000000    45.75000000
   H     85.08000000    40.53000000    46.33000000
   N     83.33000000    36.57000000    44.82000000
   C     82.27000000    35.59000000    44.70000000
   C     81.65000000    35.21000000    46.04000000
   O     80.53000000    34.72000000    46.11000000
   C     82.73000000    34.39000000    43.89000000
   C     83.48000000    34.68000000    42.59000000
   C     83.85000000    33.37000000    41.91000000
   C     84.62000000    33.57000000    40.61000000
   N     83.88000000    34.41000000    39.65000000
   H     84.27000000    36.37000000    44.53000000
   H     81.51000000    36.21000000    44.22000000
   H     81.80000000    33.83000000    43.73000000
   H     83.45000000    33.83000000    44.49000000
   H     84.29000000    35.34000000    42.89000000
   H     82.81000000    35.30000000    41.98000000
   H     82.94000000    32.78000000    41.84000000
   H     84.48000000    32.84000000    42.63000000
   H     84.75000000    32.56000000    40.24000000
   H     85.57000000    34.06000000    40.81000000
   H     83.80000000    35.35000000    40.03000000
   H     84.50000000    34.46000000    38.86000000
   H     82.99000000    34.08000000    39.31000000
   N     82.33000000    35.51000000    47.15000000
   C     81.83000000    35.26000000    48.49000000
   C     81.19000000    36.42000000    49.24000000
   O     80.72000000    36.26000000    50.37000000
   C     82.97000000    34.67000000    49.31000000
   C     84.19000000    35.58000000    49.33000000
   O     84.44000000    36.25000000    50.35000000
   O     84.90000000    35.70000000    48.30000000
   H     83.27000000    35.84000000    47.03000000
   H     81.06000000    34.50000000    48.57000000
   H     83.12000000    33.69000000    48.85000000
   H     82.76000000    34.48000000    50.36000000
   N     81.23000000    37.60000000    48.63000000
   C     80.59000000    38.79000000    49.17000000
   C     81.01000000    39.34000000    50.52000000
   O     80.23000000    39.97000000    51.23000000
   H     81.64000000    37.65000000    47.71000000
   H     79.55000000    38.52000000    49.34000000
   H     80.62000000    39.61000000    48.45000000
   N     82.27000000    39.10000000    50.89000000
   C     82.68000000    39.52000000    52.21000000
   C     83.23000000    40.94000000    52.21000000
   O     83.57000000    41.47000000    53.27000000
   C     83.68000000    38.52000000    52.78000000
   C     85.16000000    38.63000000    52.46000000
   N     86.02000000    38.44000000    53.47000000
   O     85.60000000    38.96000000    51.36000000
   H     82.89000000    38.64000000    50.23000000
   H     81.83000000    39.62000000    52.88000000
   H     83.45000000    37.50000000    52.46000000
   H     83.60000000    38.61000000    53.87000000
   H     85.68000000    38.07000000    54.35000000
   H     86.99000000    38.63000000    53.25000000
   N     83.28000000    41.59000000    51.05000000
   C     83.86000000    42.92000000    50.91000000
   C     85.28000000    42.94000000    50.38000000
   O     85.80000000    44.03000000    50.13000000
   H     82.76000000    41.20000000    50.28000000
   H     83.81000000    43.46000000    51.85000000
   H     83.23000000    43.35000000    50.13000000
   N     85.92000000    41.79000000    50.15000000
   C     87.36000000    41.85000000    49.94000000
   C     87.68000000    41.06000000    48.68000000
   O     87.09000000    40.03000000    48.35000000
   C     88.02000000    41.33000000    51.21000000
   C     87.85000000    42.33000000    52.33000000
   C     88.79000000    43.36000000    52.48000000
   C     86.73000000    42.34000000    53.17000000
   C     88.58000000    44.36000000    53.44000000
   C     86.43000000    43.36000000    54.07000000
   C     87.42000000    44.36000000    54.23000000
   O     87.28000000    45.29000000    55.22000000
   H     85.43000000    40.91000000    50.24000000
   H     87.74000000    42.83000000    49.67000000
   H     89.10000000    41.29000000    51.11000000
   H     87.60000000    40.35000000    51.45000000
   H     89.56000000    43.50000000    51.73000000
   H     86.08000000    41.49000000    52.99000000
   H     89.27000000    45.19000000    53.45000000
   H     85.50000000    43.37000000    54.61000000
   H     86.42000000    45.26000000    55.65000000
   N     88.79000000    41.49000000    48.08000000
   C     89.53000000    40.73000000    47.09000000
   C     90.91000000    40.38000000    47.61000000
   O     91.51000000    41.11000000    48.40000000
   C     89.47000000    41.54000000    45.79000000
   C     88.07000000    41.60000000    45.19000000
   C     90.43000000    40.94000000    44.77000000
   C     87.98000000    42.58000000    44.02000000
   H     89.25000000    42.34000000    48.38000000
   H     89.00000000    39.81000000    46.86000000
   H     89.77000000    42.56000000    46.01000000
   H     87.36000000    41.95000000    45.94000000
   H     87.76000000    40.61000000    44.84000000
   H     91.46000000    41.11000000    45.11000000
   H     90.25000000    39.89000000    44.58000000
   H     90.42000000    41.46000000    43.81000000
   H     88.11000000    43.58000000    44.43000000
   H     88.72000000    42.33000000    43.25000000
   H     86.96000000    42.58000000    43.65000000
   N     91.41000000    39.25000000    47.12000000
   C     92.74000000    38.77000000    47.45000000
   C     93.30000000    37.95000000    46.29000000
   O     92.56000000    37.63000000    45.37000000
   C     92.50000000    37.76000000    48.57000000
   O     93.73000000    37.76000000    49.26000000
   H     90.85000000    38.69000000    46.49000000
   H     93.36000000    39.59000000    47.83000000
   H     92.27000000    36.80000000    48.10000000
   H     91.68000000    38.17000000    49.15000000
   H     93.53000000    37.86000000    50.20000000
   N     94.62000000    37.75000000    46.24000000
   C     95.32000000    37.15000000    45.12000000
   C     94.69000000    35.94000000    44.44000000
   O     94.62000000    35.91000000    43.22000000
   C     96.74000000    36.88000000    45.60000000
   H     95.31000000    38.08000000    46.89000000
   H     95.34000000    37.85000000    44.29000000
   H     96.81000000    36.32000000    46.54000000
   H     97.20000000    36.18000000    44.90000000
   H     97.38000000    37.77000000    45.55000000
   N     94.23000000    34.94000000    45.20000000
   C     93.57000000    33.76000000    44.68000000
   C     92.22000000    34.01000000    44.02000000
   O     92.01000000    33.61000000    42.87000000
   C     93.38000000    32.76000000    45.81000000
   H     94.18000000    35.08000000    46.20000000
   H     94.20000000    33.45000000    43.85000000
   H     94.24000000    32.73000000    46.48000000
   H     92.59000000    33.12000000    46.48000000
   H     93.06000000    31.76000000    45.53000000
   N     91.33000000    34.86000000    44.54000000
   C     90.05000000    35.19000000    43.95000000
   C     90.19000000    36.17000000    42.80000000
   O     89.40000000    36.03000000    41.87000000
   C     89.07000000    35.70000000    45.01000000
   C     89.21000000    37.14000000    45.47000000
   C     88.48000000    37.32000000    46.80000000
   O     89.14000000    37.65000000    47.81000000
   O     87.24000000    37.14000000    46.82000000
   H     91.51000000    35.08000000    45.51000000
   H     89.57000000    34.30000000    43.53000000
   H     89.03000000    35.01000000    45.85000000
   H     88.04000000    35.55000000    44.70000000
   H     88.76000000    37.88000000    44.81000000
   H     90.28000000    37.35000000    45.57000000
   N     91.23000000    37.02000000    42.81000000
   C     91.68000000    37.72000000    41.63000000
   H     92.70200000    37.42000000    41.39800000
   H     91.03000000    37.47300000    40.79000000
   H     91.64900000    38.79500000    41.81000000
   H     91.70000000    37.10000000    43.70000000
  Ca     86.35000000    37.63000000    49.13000000
   O     88.86000000    38.41000000    50.39000000
   H     89.38000000    38.07000000    49.66000000
   H     89.50000000    38.75000000    51.01000000
   O     86.95000000    36.20000000    51.57000000
   H     86.99000000    35.31000000    51.92000000
   H     87.39000000    36.74000000    52.23000000
   O     87.44000000    34.84000000    49.21000000
   H     86.73000000    34.51000000    48.66000000
   H     87.26000000    34.46000000    50.07000000

Ca 1.00



