%chk=loop1.cluster18.chk
%nprocshared=20
%mem=10GB
%nosave
#b3lyp/svp scf=(tight,noincore,xqc) Test 
#IOP(5/87=12) Density=Current Pop=(MK,readradii) iop(6/33=2) iop(6/42=6)

loop1.cluster18 

   0  1 
   C     36.52000000    81.71000000    26.44000000
   C     36.67000000    81.02000000    27.79000000
   O     37.73000000    80.48000000    28.12000000
   H     35.89600000    82.59700000    26.55300000
   H     37.50300000    82.00300000    26.07000000
   H     36.05300000    81.02600000    25.73200000
   N     35.67000000    81.15000000    28.66000000
   C     35.61000000    80.68000000    30.03000000
   C     35.48000000    79.17000000    30.17000000
   O     35.85000000    78.63000000    31.21000000
   C     34.52000000    81.39000000    30.83000000
   C     33.17000000    81.00000000    30.25000000
   O     32.74000000    81.52000000    29.19000000
   O     32.48000000    80.22000000    30.93000000
   H     34.82000000    81.55000000    28.28000000
   H     36.54000000    80.91000000    30.55000000
   H     34.57000000    82.46000000    30.62000000
   H     34.62000000    81.22000000    31.90000000
   N     34.98000000    78.48000000    29.14000000
   C     34.91000000    77.03000000    29.24000000
   C     36.27000000    76.38000000    29.09000000
   O     37.13000000    76.98000000    28.45000000
   C     33.80000000    76.63000000    28.26000000
   C     32.41000000    77.16000000    28.58000000
   C     31.98000000    78.40000000    27.80000000
   C     30.72000000    78.89000000    28.50000000
   N     30.53000000    80.34000000    28.30000000
   H     34.59000000    78.98000000    28.36000000
   H     34.51000000    76.77000000    30.22000000
   H     33.66000000    75.55000000    28.35000000
   H     33.95000000    76.85000000    27.20000000
   H     32.39000000    77.43000000    29.64000000
   H     31.60000000    76.46000000    28.35000000
   H     31.84000000    78.23000000    26.74000000
   H     32.79000000    79.12000000    27.90000000
   H     30.86000000    78.77000000    29.58000000
   H     29.80000000    78.39000000    28.19000000
   H     30.35000000    80.57000000    27.33000000
   H     29.86000000    80.65000000    28.98000000
   H     31.34000000    80.84000000    28.65000000
   N     36.58000000    75.24000000    29.72000000
   C     35.79000000    74.35000000    30.55000000
   C     36.63000000    73.81000000    31.70000000
   O     36.51000000    72.64000000    32.03000000
   C     35.18000000    73.22000000    29.73000000
   C     36.18000000    72.44000000    28.88000000
   O     36.68000000    71.42000000    29.40000000
   O     36.37000000    72.78000000    27.69000000
   H     37.50000000    74.94000000    29.41000000
   H     34.97000000    74.85000000    31.05000000
   H     34.57000000    73.79000000    29.03000000
   H     34.61000000    72.60000000    30.43000000
   N     37.55000000    74.59000000    32.28000000
   C     38.03000000    75.93000000    32.05000000
   C     38.90000000    76.53000000    33.15000000
   O     38.73000000    76.12000000    34.30000000
   H     37.94000000    74.16000000    33.11000000
   H     37.14000000    76.56000000    32.07000000
   H     38.47000000    76.09000000    31.06000000
   N     39.75000000    77.52000000    32.91000000
   C     40.08000000    78.21000000    31.68000000
   C     39.87000000    79.71000000    31.86000000
   O     40.19000000    80.26000000    32.90000000
   C     41.51000000    78.03000000    31.17000000
   C     41.85000000    76.59000000    30.79000000
   O     41.03000000    75.65000000    30.91000000
   O     42.99000000    76.31000000    30.38000000
   H     40.27000000    77.92000000    33.69000000
   H     39.44000000    77.89000000    30.86000000
   H     42.26000000    78.44000000    31.84000000
   H     41.58000000    78.53000000    30.21000000
   N     39.38000000    80.33000000    30.78000000
   C     39.40000000    81.76000000    30.59000000
   C     40.57000000    82.19000000    29.72000000
   O     40.99000000    83.35000000    29.79000000
   H     39.14000000    79.81000000    29.94000000
   H     39.36000000    82.27000000    31.55000000
   H     38.43000000    82.00000000    30.15000000
   N     41.27000000    81.32000000    28.99000000
   C     42.47000000    81.51000000    28.19000000
   C     42.23000000    80.85000000    26.84000000
   O     41.50000000    79.87000000    26.82000000
   C     43.72000000    80.97000000    28.88000000
   C     43.85000000    81.64000000    30.24000000
   O     44.81000000    81.37000000    28.08000000
   H     40.85000000    80.41000000    28.93000000
   H     42.61000000    82.58000000    28.07000000
   H     43.67000000    79.88000000    28.90000000
   H     45.27000000    80.60000000    27.74000000
   H     43.16000000    81.29000000    31.00000000
   H     44.84000000    81.40000000    30.62000000
   H     43.70000000    82.72000000    30.21000000
   N     42.75000000    81.39000000    25.73000000
   C     42.50000000    80.88000000    24.40000000
   C     43.83000000    80.77000000    23.65000000
   O     44.44000000    81.72000000    23.17000000
   C     41.58000000    81.84000000    23.65000000
   C     41.42000000    81.47000000    22.17000000
   C     41.87000000    83.33000000    23.82000000
   C     40.92000000    80.03000000    22.06000000
   H     43.32000000    82.22000000    25.82000000
   H     42.04000000    79.90000000    24.52000000
   H     40.61000000    81.84000000    24.15000000
   H     42.33000000    81.61000000    21.60000000
   H     40.65000000    82.09000000    21.71000000
   H     41.00000000    83.85000000    23.42000000
   H     41.73000000    83.59000000    24.87000000
   H     42.82000000    83.65000000    23.40000000
   H     41.77000000    79.36000000    22.21000000
   H     40.18000000    79.78000000    22.82000000
   H     40.48000000    79.81000000    21.09000000
   N     44.21000000    79.51000000    23.43000000
   C     45.32000000    79.07000000    22.61000000
   C     45.06000000    78.10000000    21.47000000
   O     45.86000000    78.02000000    20.54000000
   C     46.44000000    78.56000000    23.52000000
   C     46.07000000    77.23000000    24.17000000
   O     46.79000000    79.54000000    24.47000000
   H     43.82000000    78.81000000    24.05000000
   H     45.87000000    79.91000000    22.19000000
   H     47.26000000    78.29000000    22.86000000
   H     46.92000000    80.41000000    24.09000000
   H     45.04000000    77.31000000    24.53000000
   H     46.24000000    76.43000000    23.45000000
   H     46.68000000    77.00000000    25.05000000
   N     43.94000000    77.37000000    21.56000000
   C     43.52000000    76.32000000    20.65000000
   C     44.25000000    74.99000000    20.66000000
   O     45.39000000    74.91000000    21.11000000
   C     43.29000000    76.68000000    19.18000000
   C     42.46000000    77.91000000    18.83000000
   O     42.58000000    75.64000000    18.54000000
   H     43.32000000    77.48000000    22.34000000
   H     42.57000000    75.98000000    21.08000000
   H     44.31000000    76.72000000    18.78000000
   H     41.80000000    76.04000000    18.15000000
   H     41.44000000    77.74000000    19.16000000
   H     42.94000000    78.80000000    19.24000000
   H     42.48000000    78.14000000    17.77000000
   N     43.61000000    73.86000000    20.34000000
   C     44.09000000    72.50000000    20.47000000
   C     43.16000000    71.49000000    21.14000000
   O     43.66000000    70.37000000    21.20000000
   C     44.43000000    71.94000000    19.09000000
   C     45.35000000    72.76000000    18.19000000
   C     46.83000000    72.85000000    18.52000000
   C     47.59000000    73.92000000    17.75000000
   N     47.76000000    73.61000000    16.32000000
   H     42.76000000    73.98000000    19.81000000
   H     44.97000000    72.56000000    21.12000000
   H     43.49000000    71.80000000    18.56000000
   H     44.91000000    70.97000000    19.17000000
   H     44.91000000    73.75000000    18.09000000
   H     45.24000000    72.30000000    17.20000000
   H     47.22000000    71.84000000    18.34000000
   H     46.95000000    73.02000000    19.59000000
   H     48.57000000    74.16000000    18.16000000
   H     46.95000000    74.80000000    17.65000000
   H     48.33000000    74.29000000    15.83000000
   H     48.03000000    72.66000000    16.12000000
   H     46.81000000    73.56000000    15.97000000
   N     41.98000000    71.68000000    21.73000000
   C     41.06000000    72.79000000    21.89000000
   C     40.67000000    73.51000000    20.61000000
   O     40.48000000    74.73000000    20.62000000
   C     41.65000000    73.66000000    22.99000000
   C     41.52000000    72.99000000    24.35000000
   C     42.34000000    73.73000000    25.40000000
   O     43.01000000    73.11000000    26.25000000
   O     42.24000000    74.98000000    25.43000000
   H     41.72000000    70.77000000    22.10000000
   H     40.16000000    72.25000000    22.17000000
   H     41.00000000    74.54000000    23.12000000
   H     42.72000000    73.80000000    22.83000000
   H     41.95000000    71.99000000    24.33000000
   H     40.47000000    72.91000000    24.63000000
   N     40.57000000    72.72000000    19.54000000
   C     40.17000000    73.22000000    18.24000000
   H     39.31400000    73.88600000    18.35500000
   H     40.99800000    73.76800000    17.79000000
   H     39.89500000    72.38400000    17.59700000
   H     40.70000000    71.72000000    19.60000000
  Ca     43.14000000    75.10000000    28.03000000
   O     40.77000000    76.19000000    27.59000000
   H     40.17000000    75.84000000    26.93000000
   H     40.33000000    76.97000000    27.92000000
   O     45.02000000    73.96000000    29.76000000
   H     45.21000000    74.07000000    30.70000000
   H     45.83000000    73.58000000    29.40000000
   O     43.45000000    77.88000000    27.36000000
   H     44.20000000    78.35000000    27.00000000
   H     42.70000000    78.43000000    27.16000000
   O     45.68000000    75.32000000    27.05000000
   H     46.30000000    75.84000000    27.56000000
   H     46.23000000    74.82000000    26.44000000
   O     41.92000000    72.79000000    28.73000000
   H     41.73000000    72.08000000    28.13000000
   H     41.15000000    72.84000000    29.30000000

Ca 1.00



