%chk=loop3.cluster182.chk
%nprocshared=20
%mem=10GB
%nosave
#b3lyp/svp scf=(tight,noincore,xqc) Test 
#IOP(5/87=12) Density=Current Pop=(MK,readradii) iop(6/33=2) iop(6/42=6)

loop3.cluster182 

   0  1 
   C     97.57000000   -19.28000000    58.58000000
   C     97.21000000   -20.49000000    57.73000000
   O     96.58000000   -20.23000000    56.71000000
   H     98.44900000   -18.79100000    58.16100000
   H     96.73500000   -18.58000000    58.58900000
   H     97.78500000   -19.60200000    59.59900000
   N     97.50000000   -21.75000000    58.08000000
   C     97.23000000   -23.01000000    57.41000000
   C     96.75000000   -23.94000000    58.51000000
   O     97.30000000   -23.96000000    59.61000000
   C     98.45000000   -23.41000000    56.59000000
   C     98.21000000   -24.66000000    55.75000000
   O     97.51000000   -25.61000000    56.18000000
   O     98.63000000   -24.68000000    54.57000000
   H     97.96000000   -21.83000000    58.98000000
   H     96.37000000   -22.90000000    56.75000000
   H     99.28000000   -23.67000000    57.24000000
   H     98.70000000   -22.58000000    55.93000000
   N     95.66000000   -24.66000000    58.26000000
   C     94.94000000   -25.40000000    59.28000000
   C     95.53000000   -26.78000000    59.52000000
   O     95.45000000   -27.26000000    60.65000000
   C     93.48000000   -25.47000000    58.84000000
   C     92.79000000   -24.14000000    58.55000000
   C     92.47000000   -23.36000000    59.82000000
   C     92.25000000   -21.92000000    59.34000000
   N     91.55000000   -21.09000000    60.33000000
   H     95.19000000   -24.27000000    57.45000000
   H     94.98000000   -24.94000000    60.27000000
   H     92.84000000   -26.08000000    59.47000000
   H     93.56000000   -26.01000000    57.89000000
   H     91.81000000   -24.40000000    58.14000000
   H     93.33000000   -23.66000000    57.74000000
   H     93.29000000   -23.50000000    60.53000000
   H     91.54000000   -23.67000000    60.29000000
   H     91.77000000   -22.01000000    58.37000000
   H     93.22000000   -21.42000000    59.28000000
   H     91.50000000   -20.18000000    59.90000000
   H     90.61000000   -21.34000000    60.60000000
   H     91.97000000   -21.03000000    61.24000000
   N     96.15000000   -27.44000000    58.54000000
   C     97.05000000   -28.55000000    58.77000000
   C     98.53000000   -28.21000000    58.60000000
   O     99.41000000   -29.06000000    58.78000000
   C     96.65000000   -29.78000000    57.97000000
   C     96.54000000   -29.54000000    56.47000000
   O     97.04000000   -28.52000000    55.95000000
   O     96.06000000   -30.47000000    55.78000000
   H     96.26000000   -26.94000000    57.67000000
   H     96.94000000   -28.92000000    59.78000000
   H     95.74000000   -30.28000000    58.29000000
   H     97.45000000   -30.50000000    58.14000000
   N     98.96000000   -27.02000000    58.19000000
   C    100.27000000   -26.65000000    57.70000000
   C    100.74000000   -27.18000000    56.35000000
   O    101.66000000   -26.68000000    55.71000000
   H     98.27000000   -26.30000000    58.01000000
   H    101.08000000   -26.87000000    58.40000000
   H    100.26000000   -25.56000000    57.59000000
   N    100.18000000   -28.35000000    56.03000000
   C    100.64000000   -29.02000000    54.83000000
   C    100.36000000   -28.21000000    53.57000000
   O     99.35000000   -27.53000000    53.39000000
   C    100.13000000   -30.46000000    54.80000000
   C    100.65000000   -31.23000000    53.59000000
   N     99.78000000   -31.92000000    52.85000000
   O    101.80000000   -31.08000000    53.19000000
   H     99.46000000   -28.75000000    56.61000000
   H    101.73000000   -29.11000000    54.85000000
   H     99.05000000   -30.41000000    54.69000000
   H    100.36000000   -31.04000000    55.69000000
   H     98.84000000   -31.97000000    53.19000000
   H    100.05000000   -32.35000000    51.97000000
   N    101.21000000   -28.27000000    52.55000000
   C    101.16000000   -27.63000000    51.25000000
   C    102.00000000   -28.27000000    50.15000000
   O    102.43000000   -27.48000000    49.31000000
   H    102.01000000   -28.87000000    52.69000000
   H    101.51000000   -26.62000000    51.45000000
   H    100.11000000   -27.62000000    50.95000000
   N    102.28000000   -29.57000000    50.21000000
   C    103.33000000   -30.17000000    49.41000000
   C    102.89000000   -30.36000000    47.96000000
   O    101.77000000   -30.69000000    47.57000000
   C    103.62000000   -31.55000000    50.00000000
   C    104.88000000   -32.25000000    49.55000000
   C    104.78000000   -33.10000000    48.44000000
   C    106.08000000   -32.01000000    50.22000000
   C    105.95000000   -33.75000000    48.03000000
   C    107.24000000   -32.63000000    49.75000000
   C    107.20000000   -33.51000000    48.64000000
   O    108.31000000   -34.23000000    48.33000000
   H    101.62000000   -30.10000000    50.76000000
   H    104.28000000   -29.65000000    49.51000000
   H    102.74000000   -32.15000000    49.78000000
   H    103.70000000   -31.46000000    51.08000000
   H    103.83000000   -33.39000000    48.02000000
   H    106.15000000   -31.32000000    51.05000000
   H    105.93000000   -34.40000000    47.17000000
   H    108.21000000   -32.40000000    50.19000000
   H    108.99000000   -33.98000000    48.96000000
   N    103.84000000   -30.11000000    47.05000000
   C    103.78000000   -29.96000000    45.61000000
   C    103.41000000   -31.28000000    44.94000000
   O    102.67000000   -32.12000000    45.45000000
   C    103.06000000   -28.71000000    45.13000000
   C    103.61000000   -27.45000000    45.79000000
   C    101.55000000   -28.68000000    45.36000000
   C    103.17000000   -26.09000000    45.24000000
   H    104.73000000   -29.78000000    47.39000000
   H    104.79000000   -29.79000000    45.25000000
   H    103.24000000   -28.55000000    44.07000000
   H    104.69000000   -27.38000000    45.66000000
   H    103.42000000   -27.49000000    46.87000000
   H    101.10000000   -28.00000000    44.63000000
   H    101.08000000   -29.60000000    45.02000000
   H    101.36000000   -28.34000000    46.38000000
   H    102.13000000   -25.83000000    45.45000000
   H    103.81000000   -25.28000000    45.58000000
   H    103.31000000   -26.28000000    44.17000000
   N    103.86000000   -31.39000000    43.69000000
   C    103.20000000   -32.29000000    42.77000000
   C    104.10000000   -32.84000000    41.67000000
   O    103.72000000   -33.82000000    41.04000000
   C    102.06000000   -31.56000000    42.06000000
   O    102.53000000   -30.31000000    41.62000000
   H    104.57000000   -30.72000000    43.41000000
   H    102.73000000   -33.14000000    43.26000000
   H    101.24000000   -31.45000000    42.76000000
   H    101.74000000   -32.11000000    41.17000000
   H    101.76000000   -29.75000000    41.50000000
   N    105.27000000   -32.24000000    41.44000000
   C    106.31000000   -32.40000000    40.44000000
   C    105.72000000   -32.58000000    39.05000000
   O    105.83000000   -33.65000000    38.46000000
   C    107.31000000   -33.47000000    40.86000000
   H    105.39000000   -31.38000000    41.96000000
   H    106.81000000   -31.43000000    40.42000000
   H    108.13000000   -33.56000000    40.15000000
   H    107.70000000   -33.18000000    41.83000000
   H    106.89000000   -34.48000000    40.86000000
   N    105.17000000   -31.55000000    38.39000000
   C    104.60000000   -30.31000000    38.88000000
   C    105.24000000   -29.09000000    38.25000000
   O    105.95000000   -29.10000000    37.24000000
   C    103.13000000   -30.31000000    38.46000000
   H    104.91000000   -31.82000000    37.45000000
   H    104.70000000   -30.25000000    39.96000000
   H    102.70000000   -31.21000000    38.90000000
   H    102.53000000   -29.49000000    38.86000000
   H    103.12000000   -30.55000000    37.40000000
   N    105.02000000   -27.87000000    38.74000000
   C    104.63000000   -27.45000000    40.08000000
   C    105.68000000   -26.67000000    40.84000000
   O    106.02000000   -27.03000000    41.97000000
   C    103.27000000   -26.75000000    40.02000000
   C    102.70000000   -26.13000000    41.28000000
   C    101.44000000   -25.29000000    41.09000000
   O    100.35000000   -25.85000000    41.29000000
   O    101.51000000   -24.10000000    40.72000000
   H    105.47000000   -27.19000000    38.15000000
   H    104.49000000   -28.29000000    40.76000000
   H    102.57000000   -27.47000000    39.60000000
   H    103.37000000   -25.86000000    39.40000000
   H    103.53000000   -25.59000000    41.73000000
   H    102.40000000   -26.96000000    41.93000000
   N    106.21000000   -25.63000000    40.20000000
   C    107.41000000   -24.91000000    40.60000000
   H    108.19600000   -25.07700000    39.86300000
   H    107.19100000   -23.84400000    40.66100000
   H    107.74300000   -25.27000000    41.57400000
   H    105.84000000   -25.34000000    39.30000000
  Ca     96.77000000   -26.76500000    54.06000000
   O     95.77000000   -24.30500000    53.55000000
   H     95.97000000   -23.41500000    53.84000000
   H     95.32000000   -24.18500000    52.71000000
   O     94.51000000   -26.52500000    55.16000000
   H     93.97000000   -27.18500000    55.62000000
   H     93.92000000   -25.78500000    55.04000000
   O     97.31000000   -26.60500000    51.38000000
   H     97.97000000   -27.25500000    51.15000000
   H     96.95000000   -26.32500000    50.53000000
   O     96.24000000   -29.28500000    53.40000000
   H     96.66000000   -29.89500000    52.80000000
   H     96.01000000   -29.81500000    54.17000000

Ca 1.00



