%chk=loop2.cluster192.chk
%nprocshared=20
%mem=10GB
%nosave
#b3lyp/svp scf=(tight,noincore,xqc) Test 
#IOP(5/87=12) Density=Current Pop=(MK,readradii) iop(6/33=2) iop(6/42=6)

loop2.cluster192 

   -2  1 
   C     58.86000000    47.27000000    10.98000000
   C     59.89000000    46.39000000    10.28000000
   O     59.53000000    45.28000000     9.91000000
   H     57.93500000    46.70900000    11.11400000
   H     59.24300000    47.57500000    11.95400000
   H     58.66400000    48.15400000    10.37300000
   N     61.12000000    46.89000000    10.16000000
   C     62.29000000    46.14000000     9.75000000
   C     62.44000000    46.02000000     8.24000000
   O     63.54000000    46.25000000     7.75000000
   C     63.50000000    46.68000000    10.51000000
   C     63.94000000    48.08000000    10.14000000
   O     65.12000000    48.38000000    10.44000000
   O     63.20000000    48.86000000     9.49000000
   H     61.26000000    47.88000000    10.30000000
   H     62.05000000    45.11000000     9.99000000
   H     64.30000000    45.99000000    10.23000000
   H     63.38000000    46.68000000    11.60000000
   N     61.43000000    45.75000000     7.41000000
   C     61.50000000    45.75000000     5.96000000
   C     60.13000000    45.72000000     5.30000000
   O     59.09000000    45.33000000     5.82000000
   C     62.26000000    44.51000000     5.49000000
   H     60.54000000    45.45000000     7.79000000
   H     61.93000000    46.70000000     5.65000000
   H     63.32000000    44.42000000     5.76000000
   H     61.83000000    43.57000000     5.85000000
   H     62.33000000    44.33000000     4.42000000
   N     59.98000000    46.38000000     4.14000000
   C     60.90000000    47.17000000     3.35000000
   C     61.12000000    48.54000000     3.98000000
   O     60.38000000    49.02000000     4.84000000
   C     60.30000000    47.16000000     1.95000000
   C     58.86000000    47.66000000     1.91000000
   O     58.73000000    48.84000000     1.52000000
   O     57.89000000    46.94000000     2.24000000
   H     59.03000000    46.40000000     3.81000000
   H     61.86000000    46.64000000     3.31000000
   H     60.35000000    46.17000000     1.51000000
   H     60.86000000    47.76000000     1.23000000
   N     62.16000000    49.23000000     3.51000000
   C     62.52000000    50.52000000     4.07000000
   C     62.60000000    51.49000000     2.90000000
   O     63.69000000    51.67000000     2.36000000
   H     62.63000000    48.81000000     2.71000000
   H     63.53000000    50.29000000     4.41000000
   H     61.86000000    50.91000000     4.83000000
   N     61.58000000    52.16000000     2.34000000
   C     60.19000000    51.98000000     2.67000000
   C     59.86000000    52.29000000     4.13000000
   O     60.64000000    52.99000000     4.77000000
   C     59.25000000    52.70000000     1.71000000
   C     59.61000000    52.34000000     0.27000000
   N     59.74000000    51.04000000    -0.01000000
   O     59.69000000    53.23000000    -0.57000000
   H     61.88000000    52.78000000     1.60000000
   H     59.89000000    50.94000000     2.56000000
   H     59.33000000    53.78000000     1.78000000
   H     58.18000000    52.49000000     1.78000000
   H     59.60000000    50.29000000     0.65000000
   H     59.85000000    50.88000000    -1.00000000
   N     58.76000000    51.76000000     4.67000000
   C     58.36000000    51.84000000     6.06000000
   C     56.88000000    52.08000000     6.36000000
   O     56.60000000    52.54000000     7.46000000
   H     58.20000000    51.16000000     4.09000000
   H     58.86000000    52.62000000     6.63000000
   H     58.70000000    50.94000000     6.58000000
   N     55.97000000    51.83000000     5.42000000
   C     54.54000000    51.82000000     5.67000000
   C     53.93000000    50.48000000     5.29000000
   O     54.33000000    49.72000000     4.42000000
   C     53.81000000    53.02000000     5.08000000
   C     54.39000000    54.31000000     5.66000000
   O     53.95000000    53.09000000     3.68000000
   H     56.30000000    51.36000000     4.59000000
   H     54.42000000    51.85000000     6.75000000
   H     52.76000000    52.90000000     5.36000000
   H     54.89000000    52.96000000     3.56000000
   H     54.27000000    54.24000000     6.74000000
   H     55.46000000    54.35000000     5.47000000
   H     53.83000000    55.13000000     5.20000000
   N     52.75000000    50.26000000     5.88000000
   C     52.23000000    48.91000000     5.97000000
   C     51.49000000    48.38000000     4.75000000
   O     50.91000000    49.20000000     4.04000000
   C     51.40000000    48.89000000     7.25000000
   C     52.13000000    47.99000000     8.24000000
   C     50.94000000    50.21000000     7.88000000
   C     53.54000000    48.38000000     8.67000000
   H     52.45000000    50.86000000     6.64000000
   H     53.02000000    48.16000000     6.03000000
   H     50.52000000    48.26000000     7.15000000
   H     52.11000000    47.00000000     7.77000000
   H     51.43000000    47.92000000     9.06000000
   H     50.23000000    49.91000000     8.65000000
   H     51.76000000    50.68000000     8.41000000
   H     50.40000000    50.92000000     7.26000000
   H     53.52000000    49.37000000     9.12000000
   H     53.96000000    47.64000000     9.36000000
   H     54.15000000    48.20000000     7.78000000
   N     51.29000000    47.07000000     4.59000000
   C     50.46000000    46.43000000     3.59000000
   C     50.05000000    45.04000000     4.08000000
   O     50.39000000    44.65000000     5.19000000
   C     51.30000000    46.21000000     2.34000000
   C     52.62000000    45.48000000     2.51000000
   O     53.68000000    46.11000000     2.76000000
   O     52.61000000    44.24000000     2.42000000
   H     51.73000000    46.46000000     5.26000000
   H     49.61000000    47.04000000     3.29000000
   H     51.53000000    47.16000000     1.86000000
   H     50.70000000    45.75000000     1.56000000
   N     49.26000000    44.23000000     3.37000000
   C     48.48000000    43.09000000     3.79000000
   C     49.30000000    42.20000000     4.72000000
   O     48.91000000    42.09000000     5.88000000
   C     47.11000000    43.56000000     4.26000000
   C     46.06000000    42.50000000     4.41000000
   C     45.81000000    41.95000000     5.68000000
   C     45.49000000    41.86000000     3.30000000
   C     44.96000000    40.84000000     5.81000000
   C     44.56000000    40.83000000     3.47000000
   C     44.16000000    40.39000000     4.74000000
   H     49.17000000    44.47000000     2.39000000
   H     48.37000000    42.48000000     2.89000000
   H     46.79000000    44.36000000     3.58000000
   H     47.32000000    44.00000000     5.24000000
   H     46.21000000    42.39000000     6.58000000
   H     45.80000000    42.11000000     2.30000000
   H     44.79000000    40.54000000     6.83000000
   H     44.17000000    40.32000000     2.61000000
   H     43.41000000    39.63000000     4.87000000
   N     50.34000000    41.50000000     4.26000000
   C     51.03000000    40.51000000     5.06000000
   C     51.76000000    41.19000000     6.21000000
   O     51.91000000    40.58000000     7.26000000
   C     52.01000000    39.75000000     4.17000000
   C     52.13000000    40.63000000     2.92000000
   C     50.78000000    41.33000000     2.89000000
   H     50.30000000    39.75000000     5.32000000
   H     52.97000000    39.52000000     4.64000000
   H     51.58000000    38.82000000     3.81000000
   H     52.90000000    41.38000000     3.07000000
   H     52.19000000    40.02000000     2.02000000
   H     50.78000000    42.29000000     2.38000000
   H     50.03000000    40.67000000     2.44000000
   N     52.25000000    42.41000000     5.96000000
   C     53.00000000    43.19000000     6.91000000
   C     52.17000000    43.68000000     8.09000000
   O     52.71000000    43.67000000     9.20000000
   C     53.43000000    44.41000000     6.09000000
   C     54.90000000    44.68000000     6.41000000
   C     55.37000000    45.77000000     5.47000000
   O     56.03000000    45.42000000     4.46000000
   O     55.17000000    46.98000000     5.72000000
   H     52.08000000    42.78000000     5.03000000
   H     53.87000000    42.61000000     7.22000000
   H     52.87000000    45.32000000     6.30000000
   H     53.25000000    44.32000000     5.02000000
   H     55.45000000    43.74000000     6.38000000
   H     54.91000000    45.05000000     7.44000000
   N     50.88000000    43.98000000     7.94000000
   C     49.86000000    44.11000000     8.95000000
   H     48.94100000    43.63900000     8.60000000
   H     50.19100000    43.62200000     9.86700000
   H     49.67500000    45.16600000     9.14600000
   H     50.52000000    43.78000000     7.01000000
  Ca     55.67000000    47.67000000     3.32000000
   O     56.80000000    50.32000000     2.73000000
   H     57.54000000    49.99000000     2.23000000
   H     56.23000000    50.73000000     2.08000000
   O     57.77000000    48.28000000     5.06000000
   H     58.66000000    48.61000000     5.07000000
   H     57.76000000    47.57000000     5.71000000
   O     54.45000000    48.86000000     1.30000000
   H     53.73000000    49.44000000     1.55000000
   H     54.51000000    48.96000000     0.35000000

Ca 1.00



