%chk=loop2.cluster214.chk
%nprocshared=20
%mem=10GB
%nosave
#b3lyp/svp scf=(tight,noincore,xqc) Test 
#IOP(5/87=12) Density=Current Pop=(MK,readradii) iop(6/33=2) iop(6/42=6)

loop2.cluster214 

   -2  1 
   C     67.90000000    89.53000000    97.91000000
   C     69.21000000    88.95000000    98.42000000
   O     69.10000000    87.98000000    99.16000000
   H     67.15800000    89.50700000    98.70800000
   H     68.05800000    90.56000000    97.59100000
   H     67.54400000    88.93900000    97.06600000
   N     70.39000000    89.48000000    98.08000000
   C     71.61000000    89.22000000    98.81000000
   C     71.49000000    89.78000000   100.22000000
   O     71.77000000    89.00000000   101.13000000
   C     72.82000000    89.70000000    98.01000000
   C     73.98000000    89.21000000    98.86000000
   O     74.57000000    90.06000000    99.56000000
   O     74.48000000    88.07000000    98.71000000
   H     70.40000000    90.25000000    97.42000000
   H     71.75000000    88.15000000    98.91000000
   H     72.87000000    90.76000000    97.75000000
   H     72.70000000    89.13000000    97.09000000
   N     71.03000000    91.03000000   100.30000000
   C     70.69000000    91.76000000   101.50000000
   C     70.11000000    90.89000000   102.61000000
   O     70.48000000    90.98000000   103.78000000
   C     71.90000000    92.55000000   102.01000000
   H     70.92000000    91.66000000    99.52000000
   H     69.85000000    92.40000000   101.22000000
   H     72.66000000    91.83000000   102.29000000
   H     72.27000000    93.19000000   101.21000000
   H     71.64000000    93.14000000   102.89000000
   N     69.18000000    89.99000000   102.31000000
   C     68.38000000    89.26000000   103.27000000
   C     69.26000000    88.34000000   104.10000000
   O     68.95000000    88.00000000   105.25000000
   C     67.48000000    90.17000000   104.10000000
   C     66.68000000    91.23000000   103.34000000
   O     66.97000000    92.44000000   103.48000000
   O     65.82000000    90.94000000   102.48000000
   H     68.92000000    89.95000000   101.33000000
   H     67.89000000    88.52000000   102.64000000
   H     68.10000000    90.68000000   104.83000000
   H     66.80000000    89.56000000   104.68000000
   N     70.29000000    87.74000000   103.51000000
   C     71.19000000    86.89000000   104.27000000
   C     70.79000000    85.45000000   104.56000000
   O     69.80000000    84.96000000   104.03000000
   H     70.57000000    87.91000000   102.55000000
   H     71.46000000    87.32000000   105.24000000
   H     72.07000000    86.85000000   103.62000000
   N     71.56000000    84.82000000   105.45000000
   C     71.36000000    83.50000000   106.02000000
   C     71.19000000    82.43000000   104.95000000
   O     70.34000000    81.55000000   105.06000000
   C     70.31000000    83.54000000   107.13000000
   C     70.56000000    84.68000000   108.10000000
   N     69.74000000    85.74000000   108.07000000
   O     71.48000000    84.68000000   108.92000000
   H     72.47000000    85.19000000   105.70000000
   H     72.28000000    83.20000000   106.51000000
   H     70.16000000    82.54000000   107.53000000
   H     69.32000000    83.70000000   106.70000000
   H     68.94000000    85.76000000   107.45000000
   H     69.95000000    86.38000000   108.82000000
   N     72.03000000    82.47000000   103.92000000
   C     72.08000000    81.50000000   102.84000000
   C     71.18000000    81.81000000   101.65000000
   O     71.49000000    81.34000000   100.56000000
   H     72.65000000    83.25000000   103.76000000
   H     71.87000000    80.52000000   103.25000000
   H     73.13000000    81.44000000   102.55000000
   N     70.17000000    82.68000000   101.78000000
   C     69.37000000    83.26000000   100.72000000
   C     67.88000000    82.93000000   100.75000000
   O     67.33000000    82.78000000   101.84000000
   C     69.59000000    84.77000000   100.63000000
   C     70.97000000    85.41000000   100.70000000
   O     69.08000000    85.13000000    99.36000000
   H     69.96000000    82.97000000   102.72000000
   H     69.73000000    82.75000000    99.83000000
   H     68.90000000    85.23000000   101.33000000
   H     69.27000000    86.06000000    99.18000000
   H     71.27000000    85.33000000   101.74000000
   H     71.61000000    84.86000000   100.01000000
   H     70.93000000    86.45000000   100.38000000
   N     67.22000000    82.91000000    99.59000000
   C     65.85000000    82.50000000    99.34000000
   C     64.94000000    83.25000000   100.30000000
   O     64.93000000    84.48000000   100.38000000
   C     65.39000000    82.48000000    97.89000000
   C     65.64000000    83.81000000    97.19000000
   C     66.14000000    81.33000000    97.23000000
   C     65.22000000    83.95000000    95.73000000
   H     67.72000000    83.16000000    98.75000000
   H     65.90000000    81.46000000    99.64000000
   H     64.33000000    82.23000000    97.83000000
   H     66.69000000    84.07000000    97.31000000
   H     65.11000000    84.61000000    97.71000000
   H     65.88000000    80.39000000    97.72000000
   H     65.89000000    81.25000000    96.17000000
   H     67.22000000    81.48000000    97.32000000
   H     64.25000000    83.51000000    95.54000000
   H     65.26000000    84.99000000    95.39000000
   H     65.93000000    83.48000000    95.05000000
   N     64.04000000    82.41000000   100.80000000
   C     63.14000000    82.69000000   101.90000000
   C     63.47000000    81.85000000   103.13000000
   O     62.60000000    81.15000000   103.65000000
   C     61.70000000    82.73000000   101.40000000
   C     60.84000000    83.49000000   102.39000000
   O     61.39000000    84.00000000   103.39000000
   O     59.60000000    83.50000000   102.24000000
   H     64.04000000    81.44000000   100.53000000
   H     63.32000000    83.74000000   102.17000000
   H     61.29000000    81.77000000   101.08000000
   H     61.71000000    83.36000000   100.51000000
   N     64.71000000    81.91000000   103.60000000
   C     65.11000000    81.21000000   104.81000000
   C     65.14000000    79.69000000   104.76000000
   O     64.55000000    79.15000000   105.70000000
   C     66.45000000    81.79000000   105.26000000
   C     66.91000000    81.33000000   106.63000000
   C     67.78000000    80.25000000   106.81000000
   C     66.56000000    82.06000000   107.77000000
   C     68.31000000    79.86000000   108.04000000
   C     67.10000000    81.73000000   109.02000000
   C     67.94000000    80.62000000   109.16000000
   H     65.36000000    82.59000000   103.24000000
   H     64.38000000    81.44000000   105.58000000
   H     66.31000000    82.87000000   105.27000000
   H     67.25000000    81.55000000   104.56000000
   H     68.15000000    79.73000000   105.94000000
   H     65.87000000    82.89000000   107.67000000
   H     69.00000000    79.03000000   108.13000000
   H     66.83000000    82.32000000   109.89000000
   H     68.35000000    80.43000000   110.14000000
   N     65.64000000    78.95000000   103.78000000
   C     66.08000000    79.39000000   102.47000000
   C     65.05000000    79.06000000   101.41000000
   O     65.41000000    78.87000000   100.25000000
   C     67.47000000    78.76000000   102.43000000
   C     67.46000000    77.48000000   103.26000000
   C     66.15000000    77.61000000   104.02000000
   H     66.23000000    80.47000000   102.44000000
   H     67.85000000    78.72000000   101.42000000
   H     68.14000000    79.38000000   103.04000000
   H     67.34000000    76.61000000   102.61000000
   H     68.37000000    77.32000000   103.84000000
   H     65.35000000    76.91000000   103.78000000
   H     66.38000000    77.35000000   105.05000000
   N     63.73000000    79.04000000   101.65000000
   C     62.80000000    78.44000000   100.71000000
   C     62.81000000    79.14000000    99.36000000
   O     63.03000000    80.35000000    99.29000000
   C     61.44000000    78.47000000   101.40000000
   C     61.49000000    77.48000000   102.56000000
   C     61.59000000    76.04000000   102.09000000
   O     62.26000000    75.30000000   102.84000000
   O     61.07000000    75.66000000   101.02000000
   H     63.33000000    79.23000000   102.55000000
   H     63.08000000    77.42000000   100.45000000
   H     60.73000000    78.17000000   100.63000000
   H     61.17000000    79.50000000   101.65000000
   H     60.56000000    77.61000000   103.11000000
   H     62.27000000    77.69000000   103.28000000
   N     62.49000000    78.40000000    98.30000000
   C     62.18000000    78.93000000    96.99000000
   H     61.36400000    79.64800000    97.07300000
   H     63.06000000    79.42600000    96.58100000
   H     61.88100000    78.11600000    96.33000000
   H     62.43000000    77.40000000    98.41000000
  Ca     65.37000000    93.37000000   101.65900000
   O     67.31000000    95.29000000   101.21900000
   H     67.48000000    95.84000000   100.45900000
   H     67.25000000    95.91000000   101.94900000
   O     63.79000000    91.68000000   100.08900000
   H     63.51000000    91.76000000    99.17900000
   H     63.60000000    90.77000000   100.31900000
   O     63.34000000    92.96000000   103.30900000
   H     63.02000000    93.24000000   104.16900000
   H     62.88000000    92.13000000   103.14900000
   O     64.14000000    95.68000000   101.52900000
   H     64.28000000    96.25000000   100.77900000
   H     63.96000000    96.28000000   102.25900000

Ca 1.00



