%chk=loop1.cluster23.chk
%nprocshared=20
%mem=10GB
%nosave
#b3lyp/svp scf=(tight,noincore,xqc) Test 
#IOP(5/87=12) Density=Current Pop=(MK,readradii) iop(6/33=2) iop(6/42=6)

loop1.cluster23 

   0  1 
   C     47.65000000    38.80000000    40.74000000
   C     47.18000000    38.73000000    39.29000000
   O     46.16000000    39.29000000    38.92000000
   H     48.51500000    39.46000000    40.81000000
   H     46.84600000    39.18800000    41.36500000
   H     47.92700000    37.80300000    41.08100000
   N     47.93000000    37.94000000    38.52000000
   C     47.67000000    37.74000000    37.10000000
   C     47.96000000    36.33000000    36.62000000
   O     48.72000000    35.61000000    37.26000000
   C     48.52000000    38.79000000    36.38000000
   C     47.87000000    39.19000000    35.06000000
   O     46.71000000    38.82000000    34.76000000
   O     48.48000000    40.03000000    34.37000000
   H     48.66000000    37.41000000    38.97000000
   H     46.61000000    37.94000000    36.96000000
   H     49.52000000    38.37000000    36.24000000
   H     48.67000000    39.60000000    37.09000000
   N     47.44000000    36.05000000    35.42000000
   C     47.48000000    34.79000000    34.69000000
   C     48.88000000    34.35000000    34.30000000
   O     49.25000000    33.26000000    34.75000000
   C     46.48000000    34.92000000    33.55000000
   C     46.48000000    33.70000000    32.63000000
   C     45.46000000    33.89000000    31.50000000
   C     45.71000000    32.75000000    30.52000000
   N     44.68000000    31.71000000    30.70000000
   H     46.91000000    36.79000000    34.98000000
   H     47.01000000    34.12000000    35.40000000
   H     46.59000000    35.85000000    32.99000000
   H     45.54000000    34.91000000    34.11000000
   H     46.32000000    32.76000000    33.15000000
   H     47.46000000    33.56000000    32.18000000
   H     45.63000000    34.83000000    30.97000000
   H     44.43000000    33.81000000    31.85000000
   H     46.70000000    32.34000000    30.70000000
   H     45.70000000    33.08000000    29.48000000
   H     44.92000000    30.87000000    30.19000000
   H     44.60000000    31.49000000    31.68000000
   H     43.78000000    31.95000000    30.30000000
   N     49.71000000    35.18000000    33.66000000
   C     49.56000000    36.51000000    33.11000000
   C     50.86000000    37.28000000    33.32000000
   O     51.88000000    36.60000000    33.26000000
   C     49.28000000    36.45000000    31.61000000
   C     48.64000000    37.71000000    31.05000000
   O     48.53000000    38.69000000    31.83000000
   O     47.99000000    37.63000000    29.98000000
   H     50.66000000    34.85000000    33.56000000
   H     48.78000000    37.09000000    33.59000000
   H     48.64000000    35.62000000    31.34000000
   H     50.24000000    36.31000000    31.10000000
   N     50.84000000    38.58000000    33.62000000
   C     51.95000000    39.51000000    33.67000000
   C     51.58000000    40.93000000    34.05000000
   O     51.68000000    41.37000000    35.20000000
   H     49.95000000    39.06000000    33.70000000
   H     52.52000000    39.54000000    32.73000000
   H     52.51000000    39.06000000    34.48000000
   N     51.09000000    41.69000000    33.06000000
   C     51.05000000    43.13000000    33.15000000
   C     52.33000000    43.76000000    32.62000000
   O     53.01000000    43.35000000    31.68000000
   C     49.85000000    43.62000000    32.34000000
   C     48.65000000    42.69000000    32.39000000
   O     47.87000000    42.76000000    33.37000000
   O     48.46000000    41.90000000    31.45000000
   H     50.89000000    41.28000000    32.16000000
   H     50.99000000    43.35000000    34.21000000
   H     50.05000000    43.76000000    31.27000000
   H     49.64000000    44.58000000    32.81000000
   N     52.64000000    45.00000000    33.01000000
   C     51.98000000    46.00000000    33.82000000
   C     51.37000000    47.23000000    33.14000000
   O     50.65000000    47.99000000    33.78000000
   H     53.35000000    45.41000000    32.43000000
   H     52.70000000    46.45000000    34.50000000
   H     51.20000000    45.57000000    34.44000000
   N     51.61000000    47.40000000    31.84000000
   C     51.30000000    48.60000000    31.09000000
   C     51.92000000    49.91000000    31.56000000
   O     51.19000000    50.85000000    31.87000000
   C     49.82000000    48.78000000    30.79000000
   C     48.94000000    47.53000000    30.66000000
   O     49.72000000    49.54000000    29.61000000
   H     52.14000000    46.67000000    31.38000000
   H     51.73000000    48.53000000    30.09000000
   H     49.36000000    49.41000000    31.55000000
   H     49.13000000    50.26000000    29.83000000
   H     47.91000000    47.84000000    30.44000000
   H     49.37000000    46.87000000    29.91000000
   H     48.90000000    47.09000000    31.66000000
   N     53.21000000    49.89000000    31.89000000
   C     54.11000000    51.01000000    32.14000000
   C     54.17000000    52.05000000    31.04000000
   O     55.25000000    52.37000000    30.54000000
   C     53.78000000    51.69000000    33.46000000
   C     53.23000000    50.70000000    34.49000000
   C     54.86000000    52.60000000    34.04000000
   C     54.10000000    49.69000000    35.22000000
   H     53.63000000    49.00000000    31.66000000
   H     55.10000000    50.56000000    32.17000000
   H     52.97000000    52.36000000    33.18000000
   H     52.34000000    50.19000000    34.13000000
   H     52.78000000    51.34000000    35.25000000
   H     55.77000000    52.03000000    34.25000000
   H     55.12000000    53.43000000    33.39000000
   H     54.49000000    52.88000000    35.03000000
   H     55.01000000    50.20000000    35.55000000
   H     53.60000000    49.27000000    36.09000000
   H     54.30000000    48.82000000    34.59000000
   N     53.01000000    52.53000000    30.58000000
   C     52.88000000    53.56000000    29.57000000
   C     52.21000000    54.79000000    30.17000000
   O     51.66000000    54.75000000    31.27000000
   C     52.13000000    53.00000000    28.36000000
   C     50.65000000    52.67000000    28.47000000
   O     52.63000000    51.73000000    27.99000000
   H     52.24000000    52.14000000    31.10000000
   H     53.85000000    53.84000000    29.17000000
   H     52.28000000    53.69000000    27.53000000
   H     53.56000000    51.88000000    27.79000000
   H     50.22000000    52.08000000    27.66000000
   H     50.48000000    52.04000000    29.35000000
   H     50.06000000    53.58000000    28.55000000
   N     52.18000000    55.88000000    29.40000000
   C     51.44000000    57.05000000    29.82000000
   C     49.97000000    56.85000000    29.48000000
   O     49.60000000    56.40000000    28.40000000
   C     52.00000000    58.37000000    29.31000000
   C     53.40000000    58.77000000    29.75000000
   O     51.94000000    58.45000000    27.90000000
   H     52.53000000    55.83000000    28.45000000
   H     51.64000000    57.21000000    30.88000000
   H     51.38000000    59.21000000    29.65000000
   H     52.12000000    57.57000000    27.57000000
   H     54.08000000    58.68000000    28.90000000
   H     53.44000000    59.79000000    30.14000000
   H     53.88000000    58.07000000    30.44000000
   N     49.10000000    57.21000000    30.43000000
   C     47.65000000    57.14000000    30.36000000
   C     47.16000000    55.73000000    30.06000000
   O     46.78000000    55.40000000    28.93000000
   C     47.03000000    58.30000000    29.58000000
   C     47.11000000    59.70000000    30.19000000
   C     46.62000000    60.72000000    29.17000000
   C     46.73000000    62.15000000    29.70000000
   N     45.91000000    62.35000000    30.91000000
   H     49.47000000    57.63000000    31.28000000
   H     47.30000000    57.28000000    31.38000000
   H     45.98000000    58.02000000    29.59000000
   H     47.36000000    58.40000000    28.55000000
   H     48.18000000    59.90000000    30.25000000
   H     46.53000000    59.71000000    31.11000000
   H     45.61000000    60.47000000    28.87000000
   H     47.19000000    60.64000000    28.25000000
   H     46.37000000    62.76000000    28.87000000
   H     47.73000000    62.50000000    29.98000000
   H     44.93000000    62.25000000    30.71000000
   H     46.11000000    61.66000000    31.61000000
   H     46.02000000    63.30000000    31.23000000
   N     47.15000000    54.92000000    31.11000000
   C     46.92000000    53.50000000    30.95000000
   C     48.10000000    52.61000000    31.32000000
   O     48.16000000    51.49000000    30.80000000
   C     45.70000000    53.13000000    31.78000000
   C     44.47000000    53.85000000    31.24000000
   C     43.21000000    53.12000000    31.72000000
   O     42.19000000    53.07000000    31.01000000
   O     43.14000000    52.65000000    32.87000000
   H     47.45000000    55.29000000    32.00000000
   H     46.69000000    53.22000000    29.92000000
   H     45.87000000    53.43000000    32.81000000
   H     45.52000000    52.05000000    31.75000000
   H     44.46000000    53.75000000    30.16000000
   H     44.49000000    54.92000000    31.45000000
   N     49.02000000    52.87000000    32.25000000
   C     49.15000000    53.93000000    33.24000000
   H     49.81700000    54.70300000    32.85800000
   H     48.17000000    54.36300000    33.44000000
   H     49.56100000    53.51900000    34.16200000
   H     49.69000000    52.13000000    32.36000000
  Ca     46.69000000    40.44000000    32.58000000
   O     45.02000000    41.99000000    31.44000000
   H     45.23000000    42.64000000    30.76000000
   H     44.20000000    42.31000000    31.82000000
   O     45.27000000    38.23000000    32.17000000
   H     44.99000000    38.07000000    31.27000000
   H     44.89000000    37.52000000    32.68000000
   O     45.20000000    41.44000000    34.63000000
   H     45.13000000    40.86000000    35.39000000
   H     44.62000000    42.17000000    34.83000000
   O     46.51000000    39.59000000    29.45000000
   H     46.99000000    38.82000000    29.78000000
   H     47.05000000    39.92000000    28.73000000

Ca 1.00



