%chk=loop2.cluster202.chk
%nprocshared=20
%mem=10GB
%nosave
#b3lyp/svp scf=(tight,noincore,xqc) Test 
#IOP(5/87=12) Density=Current Pop=(MK,readradii) iop(6/33=2) iop(6/42=6)

loop2.cluster202 

   -2  1 
   C    116.00000000    57.00000000    -1.58000000
   C    114.55000000    57.42000000    -1.77000000
   O    113.63000000    56.66000000    -1.48000000
   H    116.60500000    57.87800000    -1.35400000
   H    116.06800000    56.29100000    -0.75500000
   H    116.36600000    56.53200000    -2.49400000
   N    114.22000000    58.52000000    -2.45000000
   C    114.88000000    59.78000000    -2.72000000
   C    114.68000000    60.33000000    -4.12000000
   O    113.53000000    60.39000000    -4.55000000
   C    114.58000000    60.86000000    -1.69000000
   C    113.15000000    60.90000000    -1.17000000
   O    112.19000000    60.31000000    -1.72000000
   O    112.97000000    61.62000000    -0.16000000
   H    113.21000000    58.58000000    -2.49000000
   H    115.95000000    59.53000000    -2.69000000
   H    114.85000000    61.85000000    -2.06000000
   H    115.23000000    60.70000000    -0.82000000
   N    115.80000000    60.77000000    -4.70000000
   C    115.93000000    61.48000000    -5.96000000
   C    115.32000000    62.87000000    -5.88000000
   O    116.04000000    63.84000000    -6.09000000
   C    115.40000000    60.61000000    -7.09000000
   H    116.66000000    60.58000000    -4.19000000
   H    116.98000000    61.69000000    -6.17000000
   H    114.33000000    60.42000000    -7.03000000
   H    115.63000000    61.08000000    -8.04000000
   H    115.98000000    59.69000000    -7.13000000
   N    114.09000000    63.00000000    -5.38000000
   C    113.40000000    64.23000000    -5.06000000
   C    112.87000000    64.05000000    -3.65000000
   O    112.32000000    63.03000000    -3.24000000
   C    112.34000000    64.66000000    -6.08000000
   C    111.12000000    63.77000000    -6.28000000
   O    111.06000000    62.66000000    -5.71000000
   O    110.35000000    64.06000000    -7.21000000
   H    113.71000000    62.18000000    -4.92000000
   H    114.10000000    65.07000000    -5.11000000
   H    112.90000000    64.87000000    -6.99000000
   H    111.99000000    65.67000000    -5.84000000
   N    112.93000000    65.22000000    -3.00000000
   C    112.38000000    65.39000000    -1.67000000
   C    111.09000000    66.18000000    -1.58000000
   O    110.96000000    67.24000000    -2.19000000
   H    113.29000000    66.03000000    -3.48000000
   H    113.07000000    65.96000000    -1.04000000
   H    112.29000000    64.41000000    -1.19000000
   N    110.11000000    65.72000000    -0.80000000
   C    108.84000000    66.35000000    -0.49000000
   C    108.74000000    66.87000000     0.93000000
   O    109.13000000    66.14000000     1.84000000
   C    107.77000000    65.28000000    -0.65000000
   C    107.52000000    64.76000000    -2.06000000
   N    106.30000000    64.30000000    -2.35000000
   O    108.41000000    64.64000000    -2.90000000
   H    110.36000000    64.95000000    -0.19000000
   H    108.73000000    67.18000000    -1.19000000
   H    106.84000000    65.68000000    -0.25000000
   H    108.05000000    64.42000000    -0.04000000
   H    105.61000000    64.14000000    -1.63000000
   H    106.03000000    64.02000000    -3.28000000
   N    108.12000000    68.02000000     1.20000000
   C    107.73000000    68.55000000     2.49000000
   C    106.82000000    69.77000000     2.42000000
   O    106.84000000    70.43000000     1.39000000
   H    107.91000000    68.70000000     0.48000000
   H    108.69000000    68.74000000     2.98000000
   H    107.21000000    67.76000000     3.03000000
   N    106.06000000    70.04000000     3.48000000
   C    106.27000000    69.59000000     4.85000000
   C    105.48000000    68.32000000     5.12000000
   O    105.70000000    67.73000000     6.18000000
   C    105.97000000    70.75000000     5.80000000
   C    106.86000000    71.98000000     5.69000000
   O    104.62000000    71.12000000     5.61000000
   H    105.35000000    70.76000000     3.51000000
   H    107.33000000    69.41000000     5.01000000
   H    106.04000000    70.44000000     6.84000000
   H    104.20000000    70.63000000     6.32000000
   H    107.92000000    71.74000000     5.79000000
   H    106.75000000    72.60000000     4.80000000
   H    106.68000000    72.68000000     6.51000000
   N    104.57000000    67.81000000     4.29000000
   C    103.66000000    66.72000000     4.55000000
   C    102.61000000    67.02000000     5.61000000
   O    102.92000000    67.03000000     6.79000000
   C    104.39000000    65.38000000     4.70000000
   C    105.38000000    65.04000000     3.59000000
   C    103.44000000    64.20000000     4.87000000
   C    104.79000000    65.03000000     2.19000000
   H    104.24000000    68.41000000     3.55000000
   H    103.10000000    66.65000000     3.62000000
   H    104.89000000    65.42000000     5.67000000
   H    105.84000000    64.09000000     3.88000000
   H    106.13000000    65.83000000     3.58000000
   H    102.88000000    63.95000000     3.97000000
   H    103.95000000    63.27000000     5.11000000
   H    102.73000000    64.43000000     5.66000000
   H    104.31000000    65.98000000     1.97000000
   H    105.54000000    64.76000000     1.45000000
   H    104.09000000    64.22000000     2.03000000
   N    101.31000000    67.21000000     5.37000000
   C    100.73000000    67.17000000     4.04000000
   C    100.52000000    65.76000000     3.53000000
   O    101.16000000    65.30000000     2.58000000
   C     99.40000000    67.92000000     4.07000000
   C     98.33000000    67.49000000     5.06000000
   O     98.56000000    66.72000000     6.02000000
   O     97.23000000    68.07000000     4.95000000
   H    100.74000000    67.30000000     6.20000000
   H    101.35000000    67.70000000     3.32000000
   H     98.96000000    67.91000000     3.07000000
   H     99.66000000    68.96000000     4.30000000
   N     99.53000000    65.04000000     4.06000000
   C     99.23000000    63.64000000     3.86000000
   C     97.74000000    63.34000000     3.70000000
   O     96.92000000    64.17000000     4.10000000
   C     99.80000000    62.87000000     5.04000000
   C     99.16000000    63.12000000     6.39000000
   C     99.55000000    64.20000000     7.19000000
   C     98.05000000    62.36000000     6.78000000
   C     98.91000000    64.43000000     8.41000000
   C     97.39000000    62.57000000     7.99000000
   C     97.81000000    63.64000000     8.79000000
   H     98.95000000    65.57000000     4.69000000
   H     99.74000000    63.27000000     2.97000000
   H    100.84000000    63.21000000     5.11000000
   H     99.97000000    61.82000000     4.79000000
   H    100.38000000    64.80000000     6.85000000
   H     97.67000000    61.58000000     6.13000000
   H     99.27000000    65.23000000     9.04000000
   H     96.63000000    61.86000000     8.27000000
   H     97.27000000    63.79000000     9.71000000
   N     97.33000000    62.18000000     3.19000000
   C     98.09000000    61.11000000     2.58000000
   C     98.67000000    61.57000000     1.24000000
   O     98.34000000    62.65000000     0.75000000
   C     97.23000000    59.86000000     2.47000000
   C     96.15000000    60.14000000     3.50000000
   C     95.99000000    61.65000000     3.30000000
   H     98.92000000    60.76000000     3.19000000
   H     96.85000000    59.64000000     1.47000000
   H     97.87000000    59.07000000     2.87000000
   H     95.23000000    59.57000000     3.38000000
   H     96.48000000    59.95000000     4.53000000
   H     95.59000000    61.91000000     2.33000000
   H     95.39000000    62.06000000     4.11000000
   N     99.59000000    60.81000000     0.65000000
   C    100.55000000    61.10000000    -0.39000000
   C    101.67000000    60.07000000    -0.43000000
   O    101.67000000    59.18000000    -1.28000000
   C     99.81000000    61.22000000    -1.72000000
   C    100.57000000    61.71000000    -2.95000000
   C     99.76000000    61.50000000    -4.22000000
   O    100.32000000    61.11000000    -5.27000000
   O     98.54000000    61.78000000    -4.21000000
   H     99.63000000    59.85000000     0.98000000
   H    100.96000000    62.09000000    -0.21000000
   H     99.09000000    62.00000000    -1.48000000
   H     99.33000000    60.28000000    -1.98000000
   H    101.53000000    61.21000000    -3.07000000
   H    100.70000000    62.79000000    -2.86000000
   N    102.63000000    60.12000000     0.50000000
   C    102.57000000    60.33000000     1.93000000
   H    101.59200000    60.73000000     2.19700000
   H    102.72700000    59.38200000     2.44400000
   H    103.34400000    61.03800000     2.22700000
   H    103.46000000    59.59000000     0.28000000
  Ca    110.80800000    60.63000000    -4.12800000
   O    108.45800000    59.68000000    -4.70800000
   H    108.11800000    59.27000000    -5.50800000
   H    108.09800000    60.57000000    -4.73800000
   O    110.86800000    59.60000000    -6.69800000
   H    110.25800000    58.89000000    -6.87800000
   H    110.62800000    60.28000000    -7.32800000
   O    111.02800000    58.07000000    -3.63800000
   H    111.69800000    57.60000000    -4.13800000
   H    110.57800000    57.40000000    -3.13800000
   O    109.61800000    62.15000000    -2.38800000
   H    109.98800000    62.30000000    -1.50800000
   H    108.70800000    62.43000000    -2.31800000

Ca 1.00



