%chk=loop3.cluster70.chk
%nprocshared=20
%mem=10GB
%nosave
#b3lyp/svp scf=(tight,noincore,xqc) Test 
#IOP(5/87=12) Density=Current Pop=(MK,readradii) iop(6/33=2) iop(6/42=6)

loop3.cluster70 

   0  1 
   C     60.59000000    57.57000000    39.73000000
   C     60.44000000    58.96000000    39.14000000
   O     59.64000000    59.26000000    38.25000000
   H     61.40100000    57.57100000    40.45800000
   H     59.66100000    57.28100000    40.22200000
   H     60.81700000    56.86000000    38.93500000
   N     61.09000000    59.89000000    39.85000000
   C     60.88000000    61.32000000    39.80000000
   C     61.35000000    62.09000000    38.58000000
   O     62.38000000    62.76000000    38.59000000
   C     59.49000000    61.75000000    40.23000000
   C     59.23000000    61.38000000    41.69000000
   O     59.16000000    62.32000000    42.51000000
   O     59.18000000    60.19000000    42.07000000
   H     61.78000000    59.57000000    40.52000000
   H     61.54000000    61.72000000    40.57000000
   H     58.76000000    61.29000000    39.57000000
   H     59.37000000    62.83000000    40.18000000
   N     60.54000000    62.03000000    37.52000000
   C     60.65000000    62.78000000    36.28000000
   C     60.56000000    64.29000000    36.41000000
   O     61.01000000    65.01000000    35.52000000
   C     59.65000000    62.32000000    35.22000000
   C     58.17000000    62.61000000    35.43000000
   C     57.50000000    61.90000000    36.61000000
   C     56.04000000    62.35000000    36.64000000
   N     55.53000000    61.81000000    37.91000000
   H     59.83000000    61.31000000    37.55000000
   H     61.64000000    62.51000000    35.93000000
   H     59.80000000    61.24000000    35.14000000
   H     59.79000000    62.80000000    34.25000000
   H     57.63000000    62.27000000    34.55000000
   H     57.92000000    63.67000000    35.53000000
   H     57.94000000    62.13000000    37.58000000
   H     57.59000000    60.83000000    36.40000000
   H     55.53000000    61.97000000    35.76000000
   H     55.98000000    63.44000000    36.70000000
   H     55.71000000    60.81000000    37.96000000
   H     55.92000000    62.30000000    38.71000000
   H     54.53000000    61.90000000    38.01000000
   N     59.94000000    64.87000000    37.45000000
   C     59.85000000    66.30000000    37.61000000
   C     59.62000000    66.64000000    39.07000000
   O     59.53000000    65.71000000    39.87000000
   C     58.71000000    66.85000000    36.75000000
   C     57.37000000    66.14000000    36.71000000
   O     56.97000000    65.48000000    37.69000000
   O     56.67000000    66.19000000    35.68000000
   H     59.40000000    64.28000000    38.07000000
   H     60.81000000    66.75000000    37.36000000
   H     59.01000000    66.98000000    35.71000000
   H     58.50000000    67.87000000    37.09000000
   N     59.54000000    67.91000000    39.47000000
   C     59.80000000    68.42000000    40.80000000
   C     58.48000000    69.08000000    41.17000000
   O     57.98000000    69.99000000    40.50000000
   H     59.62000000    68.66000000    38.78000000
   H     60.65000000    69.10000000    40.82000000
   H     59.99000000    67.56000000    41.44000000
   N     57.75000000    68.62000000    42.19000000
   C     56.36000000    68.78000000    42.54000000
   C     56.03000000    69.72000000    43.70000000
   O     54.84000000    69.96000000    43.87000000
   C     55.71000000    67.41000000    42.67000000
   C     56.19000000    66.55000000    41.51000000
   N     55.75000000    66.82000000    40.28000000
   O     57.04000000    65.67000000    41.63000000
   H     58.16000000    67.89000000    42.76000000
   H     55.93000000    69.21000000    41.63000000
   H     54.64000000    67.56000000    42.55000000
   H     55.98000000    66.95000000    43.62000000
   H     55.02000000    67.48000000    40.05000000
   H     56.28000000    66.38000000    39.54000000
   N     57.03000000    70.16000000    44.47000000
   C     56.82000000    70.92000000    45.68000000
   C     55.80000000    70.26000000    46.59000000
   O     55.83000000    69.05000000    46.80000000
   H     57.99000000    69.93000000    44.28000000
   H     56.49000000    71.93000000    45.41000000
   H     57.77000000    71.06000000    46.20000000
   N     54.84000000    71.09000000    47.00000000
   C     53.80000000    70.75000000    47.95000000
   C     52.74000000    69.83000000    47.35000000
   O     51.69000000    69.72000000    47.99000000
   C     54.44000000    70.36000000    49.28000000
   C     53.67000000    70.80000000    50.50000000
   C     53.76000000    72.14000000    50.92000000
   C     52.91000000    69.89000000    51.24000000
   C     53.01000000    72.56000000    52.03000000
   C     52.03000000    70.33000000    52.23000000
   C     52.12000000    71.67000000    52.67000000
   O     51.43000000    71.96000000    53.80000000
   H     54.92000000    72.07000000    46.76000000
   H     53.22000000    71.67000000    47.97000000
   H     55.39000000    70.87000000    49.45000000
   H     54.56000000    69.28000000    49.25000000
   H     54.39000000    72.77000000    50.31000000
   H     52.96000000    68.86000000    50.92000000
   H     53.11000000    73.60000000    52.29000000
   H     51.42000000    69.59000000    52.73000000
   H     51.65000000    72.86000000    54.06000000
   N     52.90000000    69.12000000    46.24000000
   C     51.91000000    68.35000000    45.52000000
   C     50.72000000    69.14000000    45.02000000
   O     50.30000000    68.92000000    43.88000000
   C     51.54000000    67.04000000    46.21000000
   C     52.73000000    66.38000000    46.91000000
   C     50.83000000    66.12000000    45.23000000
   C     54.03000000    66.18000000    46.14000000
   H     53.85000000    69.01000000    45.91000000
   H     52.40000000    67.95000000    44.63000000
   H     50.90000000    67.30000000    47.05000000
   H     52.41000000    65.38000000    47.19000000
   H     52.99000000    66.78000000    47.89000000
   H     51.41000000    65.92000000    44.33000000
   H     50.54000000    65.17000000    45.68000000
   H     49.93000000    66.63000000    44.88000000
   H     54.70000000    65.42000000    46.54000000
   H     53.87000000    66.09000000    45.07000000
   H     54.53000000    67.14000000    46.19000000
   N     50.10000000    70.04000000    45.79000000
   C     49.00000000    70.89000000    45.38000000
   C     47.74000000    70.19000000    44.91000000
   O     46.98000000    70.87000000    44.22000000
   C     48.67000000    71.81000000    46.55000000
   O     49.80000000    72.60000000    46.84000000
   H     50.36000000    70.12000000    46.77000000
   H     49.49000000    71.39000000    44.54000000
   H     48.37000000    71.23000000    47.42000000
   H     47.80000000    72.41000000    46.25000000
   H     49.57000000    73.24000000    47.52000000
   N     47.49000000    68.92000000    45.24000000
   C     46.53000000    68.00000000    44.66000000
   C     46.47000000    67.92000000    43.14000000
   O     45.43000000    67.63000000    42.54000000
   C     45.19000000    68.37000000    45.29000000
   H     48.13000000    68.46000000    45.88000000
   H     46.85000000    66.99000000    44.90000000
   H     44.36000000    67.78000000    44.91000000
   H     45.28000000    68.16000000    46.35000000
   H     44.88000000    69.40000000    45.10000000
   N     47.55000000    68.30000000    42.45000000
   C     47.68000000    68.48000000    41.01000000
   C     48.40000000    67.34000000    40.30000000
   O     49.18000000    66.66000000    40.96000000
   C     48.37000000    69.81000000    40.75000000
   H     48.30000000    68.53000000    43.07000000
   H     46.73000000    68.63000000    40.49000000
   H     49.43000000    69.75000000    41.01000000
   H     48.33000000    70.02000000    39.68000000
   H     47.76000000    70.59000000    41.20000000
   N     48.20000000    67.09000000    39.01000000
   C     48.79000000    66.01000000    38.25000000
   C     48.67000000    64.63000000    38.88000000
   O     49.51000000    63.78000000    38.59000000
   C     50.16000000    66.41000000    37.72000000
   C     50.26000000    67.72000000    36.94000000
   C     51.63000000    67.72000000    36.27000000
   O     51.79000000    67.23000000    35.13000000
   O     52.65000000    68.26000000    36.77000000
   H     47.68000000    67.76000000    38.46000000
   H     48.17000000    65.94000000    37.35000000
   H     50.32000000    65.64000000    36.97000000
   H     50.92000000    66.36000000    38.50000000
   H     50.22000000    68.54000000    37.65000000
   H     49.39000000    67.81000000    36.29000000
   N     47.62000000    64.39000000    39.67000000
   C     47.39000000    63.13000000    40.34000000
   H     46.39000000    62.76800000    40.10000000
   H     48.12900000    62.40100000    40.00800000
   H     47.47600000    63.27000000    41.41800000
   H     46.93000000    65.12000000    39.81000000
  Ca     54.48000000    67.28000000    35.24000000
   O     53.52000000    64.77000000    34.12000000
   H     52.90000000    64.45000000    33.47000000
   H     54.38000000    64.65000000    33.71000000
   O     53.96000000    67.69000000    32.63000000
   H     53.68000000    67.42000000    31.76000000
   H     53.91000000    68.65000000    32.61000000
   O     54.15000000    65.76000000    37.48000000
   H     53.64000000    65.53000000    38.25000000
   H     55.06000000    65.72000000    37.76000000
   O     54.00000000    69.89000000    34.66000000
   H     54.11000000    70.45000000    33.89000000
   H     53.43000000    70.40000000    35.24000000
   O     56.62000000    68.23000000    33.71000000
   H     56.85000000    68.72000000    32.91000000
   H     57.32000000    68.44000000    34.32000000
   O     56.01000000    65.05000000    33.40000000
   H     56.67000000    65.15000000    32.71000000
   H     56.39000000    65.48000000    34.17000000
   O     55.88000000    68.68000000    37.20000000
   H     56.00000000    68.89000000    38.12000000
   H     56.37000000    69.35000000    36.73000000

Ca 1.00



