%chk=loop4.cluster40.chk
%nprocshared=20
%mem=10GB
%nosave
#b3lyp/svp scf=(tight,noincore,xqc) Test 
#IOP(5/87=12) Density=Current Pop=(MK,readradii) iop(6/33=2) iop(6/42=6)

loop4.cluster40 

   -3  1 
   C     44.78000000    48.34000000    48.75000000
   C     44.94000000    47.41000000    49.95000000
   O     45.90000000    46.64000000    49.94000000
   H     44.10300000    49.15400000    49.01000000
   H     45.75200000    48.75000000    48.47500000
   H     44.37000000    47.78100000    47.90900000
   N     44.10000000    47.54000000    50.97000000
   C     44.29000000    46.93000000    52.28000000
   C     45.67000000    47.13000000    52.89000000
   O     46.27000000    46.32000000    53.59000000
   C     43.76000000    45.50000000    52.23000000
   C     44.35000000    44.56000000    51.18000000
   O     43.76000000    44.36000000    50.10000000
   O     45.44000000    44.02000000    51.47000000
   H     43.50000000    48.35000000    50.97000000
   H     43.70000000    47.54000000    52.96000000
   H     42.68000000    45.50000000    52.13000000
   H     43.96000000    45.09000000    53.22000000
   N     46.20000000    48.33000000    52.63000000
   C     47.30000000    48.98000000    53.31000000
   C     46.95000000    49.53000000    54.69000000
   O     47.83000000    49.48000000    55.55000000
   C     48.66000000    48.30000000    53.12000000
   C     49.76000000    49.36000000    53.14000000
   C     48.73000000    47.58000000    51.78000000
   C     51.18000000    48.78000000    53.12000000
   H     45.47000000    48.96000000    52.33000000
   H     47.41000000    49.91000000    52.75000000
   H     48.71000000    47.60000000    53.95000000
   H     49.62000000    50.01000000    54.00000000
   H     49.55000000    50.02000000    52.29000000
   H     48.37000000    48.28000000    51.03000000
   H     49.69000000    47.07000000    51.70000000
   H     47.99000000    46.79000000    51.71000000
   H     51.75000000    49.47000000    53.74000000
   H     51.20000000    47.78000000    53.57000000
   H     51.56000000    48.80000000    52.11000000
   N     45.71000000    49.95000000    54.93000000
   C     45.39000000    50.57000000    56.20000000
   C     44.28000000    49.91000000    57.00000000
   O     43.15000000    50.39000000    57.04000000
   C     45.07000000    52.06000000    56.05000000
   C     43.95000000    52.41000000    55.08000000
   O     43.46000000    53.56000000    55.15000000
   O     43.55000000    51.60000000    54.22000000
   H     45.04000000    50.01000000    54.17000000
   H     46.28000000    50.59000000    56.82000000
   H     45.98000000    52.51000000    55.65000000
   H     44.78000000    52.35000000    57.06000000
   N     44.65000000    49.05000000    57.95000000
   C     45.84000000    48.22000000    58.01000000
   C     45.82000000    47.11000000    56.97000000
   O     44.77000000    46.81000000    56.39000000
   H     43.80000000    48.83000000    58.45000000
   H     45.82000000    47.70000000    58.97000000
   H     46.74000000    48.82000000    57.92000000
   N     46.86000000    46.32000000    56.73000000
   C     48.18000000    46.46000000    57.32000000
   C     49.30000000    46.18000000    56.33000000
   O     49.21000000    45.15000000    55.65000000
   C     48.31000000    45.68000000    58.62000000
   C     49.53000000    45.85000000    59.50000000
   O     49.51000000    46.65000000    60.46000000
   O     50.54000000    45.16000000    59.24000000
   H     46.75000000    45.66000000    55.97000000
   H     48.23000000    47.50000000    57.64000000
   H     48.28000000    44.62000000    58.35000000
   H     47.46000000    45.92000000    59.25000000
   N     50.36000000    46.97000000    56.18000000
   C     50.70000000    48.25000000    56.78000000
   C     52.21000000    48.37000000    56.92000000
   O     52.78000000    49.46000000    56.97000000
   H     51.10000000    46.65000000    55.57000000
   H     50.26000000    48.21000000    57.78000000
   H     50.41000000    49.04000000    56.08000000
   N     52.92000000    47.26000000    57.12000000
   C     54.26000000    47.18000000    57.64000000
   C     55.39000000    47.34000000    56.63000000
   O     56.57000000    47.17000000    56.94000000
   C     54.40000000    45.98000000    58.58000000
   C     54.27000000    44.64000000    57.86000000
   C     54.43000000    43.41000000    58.75000000
   N     53.54000000    43.23000000    59.73000000
   O     55.26000000    42.54000000    58.50000000
   H     52.40000000    46.39000000    57.18000000
   H     54.39000000    47.95000000    58.40000000
   H     53.64000000    46.02000000    59.36000000
   H     55.36000000    46.12000000    59.08000000
   H     55.16000000    44.60000000    57.23000000
   H     53.29000000    44.63000000    57.38000000
   H     52.76000000    43.81000000    59.98000000
   H     53.57000000    42.31000000    60.14000000
   N     55.01000000    47.44000000    55.35000000
   C     56.03000000    47.53000000    54.33000000
   C     56.44000000    46.12000000    53.92000000
   O     55.56000000    45.26000000    53.84000000
   C     55.55000000    48.23000000    53.06000000
   C     56.57000000    48.29000000    51.93000000
   C     55.14000000    49.65000000    53.42000000
   H     54.06000000    47.69000000    55.13000000
   H     56.91000000    48.07000000    54.69000000
   H     54.67000000    47.70000000    52.69000000
   H     56.22000000    49.05000000    51.22000000
   H     57.49000000    48.68000000    52.36000000
   H     56.74000000    47.31000000    51.49000000
   H     54.62000000    49.78000000    54.37000000
   H     56.04000000    50.27000000    53.37000000
   H     54.45000000    50.11000000    52.71000000
   N     57.73000000    45.83000000    53.74000000
   C     58.32000000    44.62000000    53.22000000
   C     57.95000000    44.33000000    51.78000000
   O     58.55000000    44.93000000    50.89000000
   C     58.31000000    43.48000000    54.24000000
   C     59.13000000    43.73000000    55.49000000
   N     60.43000000    44.00000000    55.34000000
   O     58.70000000    43.75000000    56.64000000
   H     58.34000000    46.64000000    53.68000000
   H     59.38000000    44.85000000    53.12000000
   H     58.58000000    42.56000000    53.73000000
   H     57.28000000    43.33000000    54.58000000
   H     60.87000000    44.13000000    54.44000000
   H     60.92000000    44.38000000    56.14000000
   N     57.06000000    43.39000000    51.48000000
   C     56.93000000    42.83000000    50.15000000
   C     55.48000000    42.68000000    49.71000000
   O     54.65000000    42.80000000    50.60000000
   C     57.71000000    41.52000000    50.10000000
   C     59.21000000    41.59000000    50.27000000
   C     59.86000000    41.06000000    51.39000000
   C     60.02000000    42.06000000    49.23000000
   C     61.24000000    41.04000000    51.56000000
   C     61.42000000    41.98000000    49.33000000
   C     62.05000000    41.44000000    50.47000000
   O     63.40000000    41.30000000    50.51000000
   H     56.48000000    42.99000000    52.21000000
   H     57.51000000    43.42000000    49.44000000
   H     57.43000000    41.01000000    49.17000000
   H     57.24000000    40.89000000    50.86000000
   H     59.24000000    40.73000000    52.21000000
   H     59.50000000    42.46000000    48.38000000
   H     61.63000000    40.51000000    52.41000000
   H     61.96000000    42.24000000    48.44000000
   H     63.92000000    41.38000000    49.71000000
   N     55.20000000    42.58000000    48.41000000
   C     53.88000000    42.36000000    47.86000000
   C     52.87000000    43.46000000    48.13000000
   O     51.65000000    43.28000000    48.10000000
   C     53.24000000    41.01000000    48.15000000
   C     53.89000000    39.87000000    47.37000000
   C     53.76000000    40.12000000    45.87000000
   O     54.72000000    40.65000000    45.27000000
   O     52.72000000    39.82000000    45.25000000
   H     55.97000000    42.62000000    47.75000000
   H     53.95000000    42.45000000    46.77000000
   H     52.23000000    40.85000000    47.78000000
   H     53.29000000    40.78000000    49.22000000
   H     53.37000000    38.94000000    47.60000000
   H     54.93000000    39.72000000    47.65000000
   N     53.36000000    44.67000000    48.40000000
   C     52.60000000    45.91000000    48.39000000
   C     53.22000000    46.98000000    47.51000000
   O     52.50000000    47.56000000    46.70000000
   C     52.46000000    46.46000000    49.81000000
   C     51.99000000    45.44000000    50.84000000
   C     50.67000000    44.71000000    50.63000000
   O     50.48000000    43.63000000    51.22000000
   O     49.74000000    45.14000000    49.91000000
   H     54.36000000    44.74000000    48.54000000
   H     51.62000000    45.66000000    47.99000000
   H     51.85000000    47.36000000    49.79000000
   H     53.43000000    46.81000000    50.15000000
   H     51.91000000    45.98000000    51.78000000
   H     52.82000000    44.74000000    50.93000000
   N     54.52000000    47.27000000    47.63000000
   C     55.17000000    48.25000000    46.78000000
   H     56.16500000    47.89400000    46.51200000
   H     54.58000000    48.39500000    45.87500000
   H     55.25500000    49.19600000    47.31500000
   H     55.20000000    46.67000000    48.07000000
  Ca     47.75000000    43.47000000    50.35000000
   O     48.39000000    41.48000000    51.84000000
   H     47.98000000    40.97000000    52.53000000
   H     49.25000000    41.72000000    52.18000000
   O     46.10000000    44.19000000    48.38000000
   H     46.18000000    45.08000000    48.03000000
   H     45.28000000    44.21000000    48.88000000
   O     47.95000000    44.47000000    53.05000000
   H     48.28000000    44.43000000    53.95000000
   H     47.23000000    45.09000000    53.09000000
   O     46.20000000    41.48000000    49.49000000
   H     46.43000000    40.61000000    49.82000000
   H     45.49000000    41.31000000    48.87000000
   O     49.22000000    42.11000000    48.53000000
   H     49.63000000    41.31000000    48.87000000
   H     49.95000000    42.66000000    48.26000000

Ca 1.00



