%chk=loop2.cluster225.chk
%nprocshared=20
%mem=10GB
%nosave
#b3lyp/svp scf=(tight,noincore,xqc) Test 
#IOP(5/87=12) Density=Current Pop=(MK,readradii) iop(6/33=2) iop(6/42=6)

loop2.cluster225 

   -2  1 
   C     89.72000000    48.86000000   -15.18000000
   C     88.23000000    48.76000000   -14.93000000
   O     87.76000000    49.39000000   -13.99000000
   H     90.25500000    48.29600000   -14.41500000
   H     89.95300000    48.44900000   -16.16300000
   H     90.02600000    49.90500000   -15.14100000
   N     87.44000000    47.93000000   -15.62000000
   C     87.72000000    47.27000000   -16.88000000
   C     87.18000000    45.85000000   -16.84000000
   O     86.08000000    45.57000000   -16.37000000
   C     87.02000000    48.03000000   -18.00000000
   C     85.60000000    48.50000000   -17.76000000
   O     85.14000000    49.39000000   -18.51000000
   O     84.93000000    48.20000000   -16.75000000
   H     86.53000000    47.77000000   -15.20000000
   H     88.81000000    47.27000000   -16.99000000
   H     87.16000000    47.43000000   -18.90000000
   H     87.52000000    48.97000000   -18.24000000
   N     87.97000000    44.94000000   -17.42000000
   C     87.76000000    43.51000000   -17.58000000
   C     86.62000000    43.27000000   -18.56000000
   O     86.86000000    42.76000000   -19.65000000
   C     87.63000000    42.75000000   -16.27000000
   H     88.80000000    45.26000000   -17.90000000
   H     88.64000000    43.09000000   -18.07000000
   H     88.59000000    42.77000000   -15.76000000
   H     86.87000000    43.16000000   -15.59000000
   H     87.35000000    41.72000000   -16.49000000
   N     85.37000000    43.51000000   -18.16000000
   C     84.15000000    43.67000000   -18.93000000
   C     84.05000000    45.14000000   -19.30000000
   O     83.80000000    46.04000000   -18.50000000
   C     82.90000000    43.11000000   -18.26000000
   C     82.75000000    43.67000000   -16.85000000
   O     83.70000000    43.53000000   -16.05000000
   O     81.75000000    44.37000000   -16.56000000
   H     85.35000000    43.81000000   -17.20000000
   H     84.27000000    43.03000000   -19.80000000
   H     83.04000000    42.03000000   -18.23000000
   H     82.08000000    43.27000000   -18.95000000
   N     83.98000000    45.44000000   -20.60000000
   C     84.03000000    46.82000000   -21.06000000
   C     82.66000000    47.48000000   -21.04000000
   O     81.89000000    47.37000000   -22.00000000
   H     84.03000000    44.74000000   -21.33000000
   H     84.38000000    46.81000000   -22.09000000
   H     84.74000000    47.41000000   -20.48000000
   N     82.36000000    48.12000000   -19.91000000
   C     81.04000000    48.67000000   -19.64000000
   C     81.01000000    49.81000000   -18.63000000
   O     79.95000000    50.38000000   -18.41000000
   C     80.05000000    47.64000000   -19.10000000
   C     80.45000000    46.84000000   -17.87000000
   N     79.68000000    45.81000000   -17.52000000
   O     81.40000000    47.21000000   -17.17000000
   H     82.95000000    48.00000000   -19.10000000
   H     80.61000000    49.12000000   -20.53000000
   H     79.80000000    46.90000000   -19.86000000
   H     79.12000000    48.18000000   -18.91000000
   H     78.94000000    45.65000000   -18.19000000
   H     79.97000000    45.17000000   -16.79000000
   N     82.16000000    50.29000000   -18.15000000
   C     82.07000000    51.49000000   -17.34000000
   C     81.50000000    51.26000000   -15.95000000
   O     80.95000000    50.22000000   -15.58000000
   H     83.03000000    49.91000000   -18.48000000
   H     81.37000000    52.22000000   -17.74000000
   H     83.06000000    51.95000000   -17.38000000
   N     81.44000000    52.31000000   -15.12000000
   C     81.65000000    53.72000000   -15.39000000
   C     82.67000000    54.42000000   -14.50000000
   O     82.88000000    55.62000000   -14.65000000
   C     80.32000000    54.46000000   -15.35000000
   C     79.21000000    53.97000000   -16.28000000
   O     79.81000000    54.42000000   -14.04000000
   H     81.02000000    52.07000000   -14.23000000
   H     82.08000000    53.91000000   -16.38000000
   H     80.56000000    55.50000000   -15.54000000
   H     79.66000000    55.33000000   -13.75000000
   H     79.54000000    53.82000000   -17.31000000
   H     78.91000000    52.98000000   -15.94000000
   H     78.35000000    54.63000000   -16.15000000
   N     83.21000000    53.78000000   -13.46000000
   C     84.00000000    54.26000000   -12.35000000
   C     83.19000000    55.35000000   -11.67000000
   O     83.46000000    56.55000000   -11.75000000
   C     85.45000000    54.49000000   -12.76000000
   C     85.95000000    53.13000000   -13.22000000
   C     86.19000000    55.01000000   -11.53000000
   C     87.39000000    53.10000000   -13.73000000
   H     83.14000000    52.78000000   -13.55000000
   H     83.94000000    53.43000000   -11.64000000
   H     85.59000000    55.10000000   -13.65000000
   H     85.38000000    52.82000000   -14.10000000
   H     85.81000000    52.35000000   -12.47000000
   H     87.25000000    55.05000000   -11.81000000
   H     85.92000000    56.05000000   -11.32000000
   H     85.98000000    54.43000000   -10.64000000
   H     87.59000000    52.05000000   -13.96000000
   H     87.51000000    53.73000000   -14.61000000
   H     88.10000000    53.35000000   -12.94000000
   N     82.02000000    55.06000000   -11.10000000
   C     81.51000000    53.74000000   -10.78000000
   C     82.22000000    53.19000000    -9.55000000
   O     82.58000000    52.02000000    -9.60000000
   C     79.99000000    53.61000000   -10.65000000
   C     79.32000000    54.81000000   -10.01000000
   O     78.17000000    55.16000000   -10.34000000
   O     79.89000000    55.37000000    -9.05000000
   H     81.44000000    55.84000000   -10.82000000
   H     81.68000000    53.10000000   -11.65000000
   H     79.78000000    52.76000000   -10.00000000
   H     79.58000000    53.53000000   -11.66000000
   N     82.38000000    53.91000000    -8.43000000
   C     83.07000000    53.49000000    -7.23000000
   C     82.07000000    53.08000000    -6.16000000
   O     80.91000000    53.47000000    -6.27000000
   C     84.00000000    54.65000000    -6.90000000
   C     83.38000000    55.81000000    -6.16000000
   C     82.86000000    56.83000000    -6.98000000
   C     83.44000000    55.98000000    -4.77000000
   C     82.33000000    58.00000000    -6.42000000
   C     82.98000000    57.19000000    -4.24000000
   C     82.35000000    58.16000000    -5.03000000
   H     82.01000000    54.85000000    -8.44000000
   H     83.68000000    52.62000000    -7.47000000
   H     84.55000000    54.99000000    -7.78000000
   H     84.77000000    54.35000000    -6.19000000
   H     83.06000000    56.78000000    -8.04000000
   H     83.97000000    55.25000000    -4.19000000
   H     82.04000000    58.79000000    -7.10000000
   H     82.94000000    57.31000000    -3.16000000
   H     81.97000000    59.09000000    -4.63000000
   N     82.40000000    52.36000000    -5.08000000
   C     83.69000000    52.00000000    -4.54000000
   C     84.38000000    50.82000000    -5.23000000
   O     83.72000000    50.06000000    -5.93000000
   C     83.56000000    51.72000000    -3.04000000
   C     82.17000000    52.27000000    -2.73000000
   C     81.44000000    52.04000000    -4.05000000
   H     84.26000000    52.93000000    -4.54000000
   H     83.57000000    50.64000000    -2.95000000
   H     84.22000000    52.29000000    -2.38000000
   H     81.78000000    51.71000000    -1.88000000
   H     82.09000000    53.32000000    -2.43000000
   H     81.17000000    50.99000000    -4.08000000
   H     80.52000000    52.62000000    -3.96000000
   N     85.70000000    50.71000000    -5.11000000
   C     86.47000000    49.60000000    -5.63000000
   C     87.91000000    49.86000000    -6.07000000
   O     88.73000000    48.96000000    -6.23000000
   C     86.42000000    48.51000000    -4.56000000
   C     86.73000000    48.84000000    -3.10000000
   C     88.12000000    49.43000000    -2.92000000
   O     89.13000000    48.71000000    -2.76000000
   O     88.24000000    50.68000000    -2.84000000
   H     86.22000000    51.43000000    -4.63000000
   H     86.06000000    49.18000000    -6.54000000
   H     87.09000000    47.76000000    -4.98000000
   H     85.40000000    48.14000000    -4.62000000
   H     86.75000000    47.92000000    -2.53000000
   H     85.95000000    49.51000000    -2.75000000
   N     88.30000000    51.06000000    -6.49000000
   C     87.66000000    52.30000000    -6.87000000
   H     86.71900000    52.40300000    -6.32900000
   H     88.31400000    53.13700000    -6.62500000
   H     87.46300000    52.29400000    -7.94200000
   H     89.28000000    51.01000000    -6.71000000
  Ca     83.39000000    46.32000000   -15.81900000
   O     84.95000000    46.50000000   -13.67900000
   H     85.76000000    46.86000000   -13.32900000
   H     84.66000000    45.88000000   -13.00900000
   O     82.37000000    48.28000000   -14.55900000
   H     82.57000000    48.69000000   -13.71900000
   H     81.79000000    48.91000000   -14.99900000
   O     81.82000000    45.53000000   -13.72900000
   H     80.90000000    45.34000000   -13.92900000
   H     81.79000000    45.90000000   -12.84900000

Ca 1.00



