%chk=loop2.cluster99.chk
%nprocshared=20
%mem=10GB
%nosave
#b3lyp/svp scf=(tight,noincore,xqc) Test 
#IOP(5/87=12) Density=Current Pop=(MK,readradii) iop(6/33=2) iop(6/42=6)

loop2.cluster99 

   -2  1 
   C    107.57000000    67.05000000    -3.65000000
   C    106.05000000    67.11000000    -3.62000000
   O    105.47000000    66.04000000    -3.84000000
   H    107.97600000    67.79400000    -2.96500000
   H    107.90100000    66.05700000    -3.34500000
   H    107.92200000    67.25700000    -4.66000000
   N    105.33000000    68.20000000    -3.39000000
   C    105.73000000    69.53000000    -2.96000000
   C    105.25000000    70.52000000    -4.01000000
   O    104.05000000    70.60000000    -4.29000000
   C    105.13000000    69.79000000    -1.58000000
   C    103.67000000    69.47000000    -1.33000000
   O    103.00000000    69.13000000    -2.33000000
   O    103.31000000    69.31000000    -0.14000000
   H    104.33000000    68.10000000    -3.48000000
   H    106.82000000    69.58000000    -2.94000000
   H    105.25000000    70.87000000    -1.46000000
   H    105.94000000    69.38000000    -0.97000000
   N    106.06000000    71.53000000    -4.29000000
   C    105.85000000    72.80000000    -4.96000000
   C    104.98000000    73.81000000    -4.22000000
   O    105.20000000    75.01000000    -4.07000000
   C    105.43000000    72.47000000    -6.39000000
   H    106.98000000    71.38000000    -3.89000000
   H    106.82000000    73.30000000    -5.07000000
   H    105.26000000    73.40000000    -6.93000000
   H    106.12000000    71.83000000    -6.93000000
   H    104.47000000    71.96000000    -6.36000000
   N    103.83000000    73.34000000    -3.74000000
   C    102.71000000    74.06000000    -3.16000000
   C    101.90000000    73.24000000    -2.17000000
   O    101.79000000    72.03000000    -2.33000000
   C    101.82000000    74.61000000    -4.27000000
   C    101.28000000    73.61000000    -5.29000000
   O    101.49000000    72.39000000    -5.16000000
   O    100.52000000    74.09000000    -6.16000000
   H    103.69000000    72.34000000    -3.78000000
   H    103.04000000    74.86000000    -2.50000000
   H    102.42000000    75.42000000    -4.68000000
   H    100.95000000    75.12000000    -3.85000000
   N    101.30000000    73.86000000    -1.14000000
   C    100.64000000    73.22000000    -0.02000000
   C     99.22000000    72.69000000    -0.12000000
   O     98.44000000    73.17000000    -0.95000000
   H    101.36000000    74.86000000    -1.15000000
   H    100.64000000    73.97000000     0.77000000
   H    101.27000000    72.40000000     0.33000000
   N     98.82000000    71.79000000     0.79000000
   C     97.42000000    71.61000000     1.13000000
   C     97.23000000    71.63000000     2.64000000
   O     98.00000000    70.96000000     3.32000000
   C     97.02000000    70.23000000     0.60000000
   C     96.92000000    70.03000000    -0.90000000
   N     96.21000000    70.91000000    -1.61000000
   O     97.38000000    69.02000000    -1.44000000
   H     99.39000000    71.42000000     1.53000000
   H     96.84000000    72.45000000     0.75000000
   H     96.05000000    70.04000000     1.04000000
   H     97.72000000    69.48000000     0.98000000
   H     95.71000000    71.67000000    -1.16000000
   H     96.19000000    70.87000000    -2.62000000
   N     96.19000000    72.26000000     3.19000000
   C     95.85000000    72.26000000     4.60000000
   C     94.36000000    72.41000000     4.91000000
   O     93.66000000    72.87000000     4.02000000
   H     95.56000000    72.74000000     2.58000000
   H     96.34000000    73.10000000     5.10000000
   H     96.21000000    71.31000000     4.98000000
   N     93.93000000    72.14000000     6.15000000
   C     94.72000000    71.55000000     7.21000000
   C     94.78000000    70.03000000     7.22000000
   O     95.58000000    69.52000000     7.99000000
   C     94.25000000    72.13000000     8.54000000
   C     94.37000000    73.65000000     8.64000000
   O     92.94000000    71.67000000     8.80000000
   H     92.95000000    72.31000000     6.35000000
   H     95.77000000    71.82000000     7.23000000
   H     94.93000000    71.76000000     9.31000000
   H     92.90000000    71.39000000     9.72000000
   H     94.11000000    73.92000000     9.66000000
   H     95.36000000    74.04000000     8.39000000
   H     93.58000000    74.12000000     8.05000000
   N     93.96000000    69.41000000     6.37000000
   C     93.66000000    68.00000000     6.25000000
   C     93.12000000    67.49000000     7.58000000
   O     93.88000000    67.30000000     8.52000000
   C     94.93000000    67.25000000     5.86000000
   C     95.57000000    67.71000000     4.55000000
   C     94.88000000    65.73000000     5.97000000
   C     94.87000000    67.35000000     3.24000000
   H     93.43000000    70.04000000     5.78000000
   H     92.91000000    67.85000000     5.46000000
   H     95.72000000    67.53000000     6.56000000
   H     96.59000000    67.32000000     4.49000000
   H     95.72000000    68.79000000     4.55000000
   H     94.40000000    65.39000000     6.88000000
   H     94.15000000    65.37000000     5.24000000
   H     95.82000000    65.24000000     5.72000000
   H     95.55000000    67.71000000     2.47000000
   H     94.76000000    66.27000000     3.26000000
   H     93.89000000    67.84000000     3.19000000
   N     91.85000000    67.07000000     7.60000000
   C     90.93000000    66.83000000     6.51000000
   C     91.34000000    65.69000000     5.58000000
   O     91.33000000    65.89000000     4.37000000
   C     89.51000000    66.56000000     7.01000000
   C     89.42000000    65.56000000     8.15000000
   O     90.37000000    65.25000000     8.89000000
   O     88.27000000    65.11000000     8.33000000
   H     91.51000000    66.72000000     8.48000000
   H     90.77000000    67.69000000     5.87000000
   H     88.96000000    66.17000000     6.16000000
   H     88.97000000    67.47000000     7.29000000
   N     91.59000000    64.50000000     6.13000000
   C     91.84000000    63.29000000     5.38000000
   C     90.63000000    62.44000000     5.01000000
   O     89.68000000    62.66000000     5.75000000
   C     92.93000000    62.57000000     6.16000000
   C     92.47000000    61.91000000     7.44000000
   C     92.61000000    62.52000000     8.69000000
   C     92.23000000    60.53000000     7.35000000
   C     92.33000000    61.76000000     9.83000000
   C     91.85000000    59.83000000     8.51000000
   C     91.90000000    60.43000000     9.77000000
   H     91.74000000    64.45000000     7.13000000
   H     92.25000000    63.51000000     4.39000000
   H     93.79000000    63.19000000     6.43000000
   H     93.33000000    61.80000000     5.50000000
   H     92.84000000    63.57000000     8.74000000
   H     92.12000000    60.03000000     6.40000000
   H     92.30000000    62.30000000    10.77000000
   H     91.40000000    58.86000000     8.40000000
   H     91.48000000    59.98000000    10.66000000
   N     90.60000000    61.46000000     4.10000000
   C     91.72000000    60.76000000     3.49000000
   C     92.23000000    61.47000000     2.25000000
   O     91.72000000    62.53000000     1.90000000
   C     91.20000000    59.35000000     3.22000000
   C     89.86000000    59.22000000     3.94000000
   C     89.41000000    60.67000000     3.86000000
   H     92.59000000    60.67000000     4.14000000
   H     91.06000000    59.15000000     2.15000000
   H     91.79000000    58.54000000     3.66000000
   H     89.16000000    58.62000000     3.36000000
   H     89.98000000    58.95000000     4.99000000
   H     89.00000000    60.90000000     2.88000000
   H     88.59000000    60.86000000     4.56000000
   N     93.18000000    60.78000000     1.61000000
   C     93.60000000    61.09000000     0.26000000
   C     95.11000000    60.98000000     0.09000000
   O     95.52000000    60.86000000    -1.06000000
   C     92.78000000    60.27000000    -0.73000000
   C     91.64000000    60.99000000    -1.45000000
   C     92.11000000    61.96000000    -2.52000000
   O     92.74000000    61.53000000    -3.51000000
   O     91.88000000    63.18000000    -2.34000000
   H     93.60000000    59.99000000     2.07000000
   H     93.34000000    62.11000000     0.01000000
   H     92.35000000    59.42000000    -0.21000000
   H     93.41000000    59.79000000    -1.48000000
   H     90.97000000    61.41000000    -0.70000000
   H     91.06000000    60.22000000    -1.96000000
   N     95.99000000    61.20000000     1.07000000
   C     95.86000000    61.43000000     2.49000000
   H     94.80400000    61.45700000     2.75800000
   H     96.35300000    60.62500000     3.03600000
   H     96.32400000    62.38200000     2.74800000
   H     96.96000000    61.14000000     0.79000000
  Ca    101.40500000    70.01000000    -4.12500000
   O    100.05500000    67.46000000    -4.25500000
   H    100.42500000    66.58000000    -4.28500000
   H     99.20500000    67.35000000    -3.82500000
   O    102.58500000    70.62000000    -7.03500000
   H    102.35500000    71.45000000    -6.60500000
   H    101.83500000    70.44000000    -7.60500000
   O     99.20000000    71.30000000    -3.48500000
   H     98.37000000    71.32000000    -3.97500000
   H     99.07000000    71.90000000    -2.76500000
   O    100.34500000    69.34000000    -1.58500000
   H     99.51500000    69.35000000    -1.10500000
   H    101.01500000    69.42000000    -0.90500000
   O    100.00500000    69.64000000    -6.30500000
   H    100.08500000    68.76000000    -6.68500000
   H     99.36500000    70.08000000    -6.87500000
   O    102.59500000    68.00000000    -5.49500000
   H    102.53500000    67.04000000    -5.49500000
   H    103.38500000    68.19000000    -6.01500000

Ca 1.00



