%chk=CaMKII_loop3_43.0.chk
%nprocshared=48
%mem=10GB
%nosave
#b3lyp/svp scf=(tight,noincore) Test 
#IOP(5/87=12) Density=Current Pop=(MK,readradii) iop(6/33=2) iop(6/42=6)

CaMKII_loop3_43.0 

   0   1
   C     79.77000000    56.08000000    32.70000000
   C     79.33000000    55.64000000    34.09000000
   O     79.87000000    54.71000000    34.69000000
   H     80.79900000    55.76500000    32.52900000
   H     79.12200000    55.62400000    31.95200000
   H     79.70500000    57.16500000    32.62400000
   N     78.17000000    56.14000000    34.52000000
   C     77.55000000    55.72000000    35.76000000
   C     76.98000000    54.33000000    35.52000000
   O     76.07000000    54.04000000    34.75000000
   C     76.43000000    56.70000000    36.09000000
   C     75.70000000    56.38000000    37.39000000
   O     76.09000000    55.43000000    38.10000000
   O     74.74000000    57.14000000    37.68000000
   H     77.66000000    56.80000000    33.95000000
   H     78.24000000    55.67000000    36.60000000
   H     75.78000000    56.74000000    35.21000000
   H     76.85000000    57.70000000    36.22000000
   N     77.54000000    53.33000000    36.21000000
   C     77.27000000    51.94000000    35.91000000
   C     75.87000000    51.49000000    36.26000000
   O     75.27000000    50.66000000    35.58000000
   C     78.35000000    51.00000000    36.45000000
   C     78.49000000    49.75000000    35.60000000
   C     79.78000000    49.02000000    35.98000000
   C     79.94000000    47.60000000    35.46000000
   N     79.20000000    46.64000000    36.30000000
   H     78.18000000    53.66000000    36.92000000
   H     77.35000000    51.89000000    34.82000000
   H     78.20000000    50.72000000    37.49000000
   H     79.27000000    51.59000000    36.52000000
   H     78.47000000    49.91000000    34.52000000
   H     77.66000000    49.07000000    35.81000000
   H     79.94000000    49.18000000    37.04000000
   H     80.61000000    49.59000000    35.54000000
   H     80.97000000    47.25000000    35.49000000
   H     79.67000000    47.65000000    34.40000000
   H     79.27000000    45.65000000    36.12000000
   H     79.51000000    46.75000000    37.25000000
   H     78.22000000    46.87000000    36.32000000
   N     75.36000000    51.95000000    37.41000000
   C     74.14000000    51.50000000    38.06000000
   C     73.08000000    52.58000000    37.91000000
   O     71.92000000    52.20000000    38.08000000
   C     74.37000000    51.05000000    39.50000000
   C     75.20000000    51.88000000    40.47000000
   O     75.74000000    52.91000000    40.01000000
   O     75.32000000    51.56000000    41.67000000
   H     75.83000000    52.76000000    37.79000000
   H     73.79000000    50.62000000    37.54000000
   H     74.88000000    50.09000000    39.38000000
   H     73.43000000    50.82000000    39.99000000
   N     73.34000000    53.84000000    37.54000000
   C     72.44000000    54.96000000    37.42000000
   C     72.13000000    55.75000000    38.68000000
   O     70.96000000    56.07000000    38.86000000
   H     74.29000000    54.13000000    37.35000000
   H     71.51000000    54.60000000    36.99000000
   H     72.87000000    55.63000000    36.67000000
   N     73.04000000    55.75000000    39.66000000
   C     72.82000000    56.28000000    40.99000000
   C     73.02000000    57.79000000    41.08000000
   O     72.78000000    58.45000000    42.09000000
   C     73.57000000    55.49000000    42.05000000
   C     74.92000000    56.12000000    42.37000000
   N     75.30000000    56.33000000    43.63000000
   O     75.66000000    56.43000000    41.44000000
   H     74.00000000    55.52000000    39.43000000
   H     71.77000000    56.28000000    41.28000000
   H     73.63000000    54.43000000    41.79000000
   H     73.01000000    55.55000000    42.98000000
   H     74.68000000    56.06000000    44.38000000
   H     76.22000000    56.73000000    43.67000000
   N     73.42000000    58.47000000    40.01000000
   C     73.53000000    59.91000000    39.87000000
   C     74.97000000    60.42000000    39.80000000
   O     75.12000000    61.64000000    39.72000000
   H     73.87000000    57.95000000    39.27000000
   H     73.00000000    60.42000000    40.67000000
   H     73.04000000    60.21000000    38.94000000
   N     75.95000000    59.54000000    40.00000000
   C     77.35000000    59.84000000    40.22000000
   C     78.31000000    58.88000000    39.53000000
   O     77.98000000    57.71000000    39.39000000
   C     77.67000000    59.87000000    41.72000000
   C     76.91000000    60.88000000    42.54000000
   C     77.60000000    61.97000000    43.07000000
   C     75.56000000    60.71000000    42.89000000
   C     76.97000000    62.89000000    43.92000000
   C     74.88000000    61.65000000    43.68000000
   C     75.59000000    62.75000000    44.19000000
   O     75.01000000    63.56000000    45.12000000
   H     75.77000000    58.55000000    39.93000000
   H     77.51000000    60.88000000    39.95000000
   H     78.75000000    59.89000000    41.89000000
   H     77.37000000    58.86000000    42.00000000
   H     78.62000000    62.09000000    42.73000000
   H     74.91000000    59.97000000    42.45000000
   H     77.50000000    63.77000000    44.24000000
   H     73.84000000    61.54000000    43.93000000
   H     74.10000000    63.28000000    45.19000000
   N     79.53000000    59.32000000    39.20000000
   C     80.57000000    58.40000000    38.77000000
   C     81.57000000    58.11000000    39.87000000
   O     81.87000000    59.00000000    40.67000000
   C     81.27000000    58.92000000    37.51000000
   C     80.17000000    59.01000000    36.45000000
   C     82.47000000    58.11000000    37.02000000
   C     80.62000000    59.86000000    35.26000000
   H     79.81000000    60.27000000    39.43000000
   H     80.05000000    57.49000000    38.49000000
   H     81.60000000    59.91000000    37.79000000
   H     79.32000000    59.60000000    36.78000000
   H     79.89000000    58.05000000    36.02000000
   H     82.82000000    58.58000000    36.10000000
   H     83.34000000    58.22000000    37.66000000
   H     82.19000000    57.09000000    36.76000000
   H     81.12000000    60.76000000    35.60000000
   H     81.46000000    59.35000000    34.78000000
   H     79.88000000    59.94000000    34.47000000
   N     82.05000000    56.87000000    39.85000000
   C     83.19000000    56.49000000    40.66000000
   C     84.29000000    55.84000000    39.83000000
   O     84.11000000    55.35000000    38.72000000
   C     82.76000000    55.81000000    41.96000000
   O     82.15000000    54.55000000    41.72000000
   H     81.70000000    56.17000000    39.20000000
   H     83.68000000    57.37000000    41.07000000
   H     82.07000000    56.40000000    42.56000000
   H     83.62000000    55.68000000    42.61000000
   H     82.84000000    53.92000000    41.93000000
   N     85.47000000    55.69000000    40.44000000
   C     86.65000000    55.26000000    39.72000000
   C     86.53000000    53.91000000    39.04000000
   O     86.91000000    53.80000000    37.87000000
   C     87.87000000    55.46000000    40.62000000
   H     85.67000000    55.99000000    41.38000000
   H     86.77000000    55.99000000    38.92000000
   H     88.77000000    55.08000000    40.14000000
   H     87.94000000    56.51000000    40.92000000
   H     87.69000000    54.89000000    41.53000000
   N     85.84000000    52.99000000    39.71000000
   C     85.69000000    51.66000000    39.16000000
   C     84.80000000    51.60000000    37.93000000
   O     84.95000000    50.79000000    37.02000000
   C     85.40000000    50.73000000    40.34000000
   H     85.54000000    53.10000000    40.67000000
   H     86.67000000    51.30000000    38.86000000
   H     84.48000000    51.01000000    40.85000000
   H     85.12000000    49.74000000    39.98000000
   H     86.23000000    50.70000000    41.06000000
   N     83.87000000    52.56000000    37.83000000
   C     82.96000000    52.73000000    36.71000000
   C     83.52000000    53.41000000    35.47000000
   O     83.19000000    53.00000000    34.36000000
   C     81.70000000    53.47000000    37.17000000
   C     81.18000000    52.91000000    38.49000000
   C     79.91000000    53.70000000    38.78000000
   O     78.85000000    53.04000000    38.77000000
   O     79.85000000    54.94000000    38.90000000
   H     84.06000000    53.39000000    38.36000000
   H     82.68000000    51.70000000    36.48000000
   H     80.89000000    53.28000000    36.47000000
   H     81.81000000    54.55000000    37.10000000
   H     81.99000000    53.08000000    39.20000000
   H     81.09000000    51.83000000    38.44000000
   N     84.42000000    54.38000000    35.63000000
   C     85.19000000    54.90000000    34.51000000
   H     86.17800000    54.44100000    34.50500000
   H     84.67700000    54.66800000    33.57700000
   H     85.29300000    55.98100000    34.60900000
   H     84.82000000    54.66000000    36.52000000
  Ca     77.57000000    54.97000000    40.26000000
   O     78.93000000    56.42000000    42.05000000
   H     78.94000000    55.96000000    42.89000000
   H     79.50000000    57.17000000    42.18000000

Ca 1.70



