%chk=CaMKII_loop3_57.0.chk
%nprocshared=48
%mem=10GB
%nosave
#b3lyp/svp scf=(tight,noincore) Test 
#IOP(5/87=12) Density=Current Pop=(MK,readradii) iop(6/33=2) iop(6/42=6)

CaMKII_loop3_57.0 

   0   1
   C     86.99000000    38.71000000    41.36000000
   C     86.83000000    38.14000000    42.76000000
   O     87.39000000    37.08000000    43.02000000
   H     88.04500000    38.71100000    41.08700000
   H     86.43300000    38.09700000    40.65200000
   H     86.60800000    39.73100000    41.33700000
   N     86.00000000    38.66000000    43.67000000
   C     85.79000000    38.14000000    45.00000000
   C     84.55000000    37.26000000    45.07000000
   O     83.47000000    37.61000000    45.55000000
   C     85.67000000    39.31000000    45.98000000
   C     85.80000000    38.78000000    47.40000000
   O     86.30000000    37.65000000    47.60000000
   O     85.25000000    39.45000000    48.30000000
   H     85.41000000    39.43000000    43.38000000
   H     86.64000000    37.53000000    45.30000000
   H     84.69000000    39.77000000    45.84000000
   H     86.44000000    40.05000000    45.79000000
   N     84.86000000    36.03000000    44.65000000
   C     83.86000000    34.98000000    44.52000000
   C     83.48000000    34.46000000    45.89000000
   O     82.27000000    34.30000000    46.07000000
   C     84.34000000    33.88000000    43.58000000
   C     84.53000000    34.19000000    42.09000000
   C     84.69000000    33.01000000    41.13000000
   C     85.32000000    33.41000000    39.80000000
   N     84.59000000    34.46000000    39.07000000
   H     85.82000000    35.85000000    44.38000000
   H     83.00000000    35.50000000    44.10000000
   H     83.66000000    33.03000000    43.68000000
   H     85.26000000    33.45000000    43.98000000
   H     85.40000000    34.84000000    42.03000000
   H     83.74000000    34.79000000    41.64000000
   H     83.71000000    32.58000000    40.93000000
   H     85.38000000    32.31000000    41.59000000
   H     85.35000000    32.58000000    39.10000000
   H     86.37000000    33.67000000    39.97000000
   H     84.78000000    35.36000000    39.49000000
   H     85.03000000    34.39000000    38.16000000
   H     83.62000000    34.17000000    39.09000000
   N     84.41000000    34.22000000    46.82000000
   C     84.03000000    33.87000000    48.18000000
   C     83.46000000    35.07000000    48.92000000
   O     82.72000000    34.95000000    49.89000000
   C     85.31000000    33.44000000    48.88000000
   C     86.49000000    34.38000000    48.68000000
   O     86.65000000    35.17000000    49.63000000
   O     87.29000000    34.31000000    47.72000000
   H     85.38000000    34.20000000    46.57000000
   H     83.32000000    33.04000000    48.18000000
   H     85.56000000    32.43000000    48.58000000
   H     85.16000000    33.34000000    49.95000000
   N     83.56000000    36.31000000    48.42000000
   C     82.79000000    37.41000000    48.96000000
   C     83.20000000    37.89000000    50.35000000
   O     82.37000000    38.45000000    51.07000000
   H     84.08000000    36.45000000    47.57000000
   H     81.74000000    37.12000000    48.95000000
   H     82.72000000    38.27000000    48.29000000
   N     84.43000000    37.61000000    50.77000000
   C     84.98000000    38.11000000    52.01000000
   C     85.23000000    39.61000000    51.99000000
   O     85.73000000    40.16000000    52.98000000
   C     86.15000000    37.22000000    52.41000000
   C     87.53000000    37.68000000    51.96000000
   N     88.34000000    37.99000000    52.98000000
   O     87.88000000    37.92000000    50.81000000
   H     84.97000000    37.04000000    50.14000000
   H     84.20000000    37.95000000    52.76000000
   H     86.06000000    36.18000000    52.11000000
   H     86.23000000    37.13000000    53.50000000
   H     88.10000000    38.06000000    53.95000000
   H     89.27000000    38.21000000    52.65000000
   N     84.89000000    40.32000000    50.91000000
   C     85.15000000    41.73000000    50.70000000
   C     86.58000000    41.97000000    50.25000000
   O     86.98000000    43.13000000    50.20000000
   H     84.36000000    39.77000000    50.25000000
   H     84.94000000    42.31000000    51.60000000
   H     84.46000000    42.14000000    49.95000000
   N     87.39000000    40.98000000    49.86000000
   C     88.74000000    41.23000000    49.41000000
   C     89.17000000    40.36000000    48.24000000
   O     88.95000000    39.15000000    48.15000000
   C     89.70000000    41.05000000    50.58000000
   C     89.64000000    41.98000000    51.77000000
   C     90.25000000    43.24000000    51.77000000
   C     88.81000000    41.61000000    52.83000000
   C     90.28000000    43.96000000    52.97000000
   C     88.76000000    42.31000000    54.04000000
   C     89.48000000    43.52000000    54.04000000
   O     89.47000000    44.33000000    55.14000000
   H     87.01000000    40.05000000    49.82000000
   H     88.77000000    42.30000000    49.19000000
   H     90.67000000    41.18000000    50.09000000
   H     89.67000000    40.01000000    50.93000000
   H     90.76000000    43.56000000    50.87000000
   H     88.26000000    40.70000000    52.66000000
   H     90.72000000    44.94000000    53.10000000
   H     88.12000000    41.97000000    54.84000000
   H     89.04000000    43.96000000    55.92000000
   N     90.04000000    40.95000000    47.43000000
   C     90.73000000    40.33000000    46.32000000
   C     92.10000000    39.83000000    46.75000000
   O     92.79000000    40.34000000    47.63000000
   C     90.79000000    41.32000000    45.16000000
   C     89.39000000    41.45000000    44.56000000
   C     91.82000000    40.90000000    44.11000000
   C     89.10000000    42.48000000    43.47000000
   H     90.33000000    41.90000000    47.64000000
   H     90.07000000    39.51000000    46.02000000
   H     91.14000000    42.29000000    45.50000000
   H     88.72000000    41.84000000    45.33000000
   H     89.02000000    40.45000000    44.32000000
   H     92.85000000    40.95000000    44.47000000
   H     91.60000000    39.88000000    43.79000000
   H     91.74000000    41.58000000    43.27000000
   H     89.55000000    43.43000000    43.74000000
   H     89.55000000    42.06000000    42.57000000
   H     88.06000000    42.77000000    43.37000000
   N     92.59000000    38.78000000    46.09000000
   C     93.89000000    38.17000000    46.23000000
   C     94.40000000    37.74000000    44.86000000
   O     93.72000000    37.73000000    43.84000000
   C     93.75000000    37.02000000    47.23000000
   O     95.01000000    36.50000000    47.58000000
   H     92.01000000    38.39000000    45.35000000
   H     94.62000000    38.86000000    46.66000000
   H     93.12000000    36.27000000    46.76000000
   H     93.17000000    37.35000000    48.09000000
   H     94.83000000    35.59000000    47.81000000
   N     95.73000000    37.65000000    44.75000000
   C     96.43000000    37.15000000    43.59000000
   C     95.86000000    36.04000000    42.72000000
   O     95.57000000    36.39000000    41.57000000
   C     97.84000000    36.80000000    44.05000000
   H     96.31000000    37.87000000    45.55000000
   H     96.64000000    37.97000000    42.90000000
   H     98.50000000    36.53000000    43.23000000
   H     98.30000000    37.55000000    44.69000000
   H     97.83000000    35.94000000    44.73000000
   N     95.66000000    34.85000000    43.29000000
   C     95.10000000    33.76000000    42.52000000
   C     93.62000000    33.91000000    42.23000000
   O     93.22000000    33.33000000    41.22000000
   C     95.33000000    32.42000000    43.22000000
   H     95.93000000    34.69000000    44.25000000
   H     95.59000000    33.82000000    41.55000000
   H     96.38000000    32.22000000    43.44000000
   H     94.74000000    32.39000000    44.14000000
   H     94.86000000    31.63000000    42.65000000
   N     92.85000000    34.68000000    43.00000000
   C     91.48000000    34.95000000    42.62000000
   C     91.39000000    36.03000000    41.55000000
   O     90.45000000    36.02000000    40.77000000
   C     90.61000000    35.19000000    43.84000000
   C     90.84000000    36.49000000    44.61000000
   C     90.02000000    36.52000000    45.89000000
   O     90.52000000    36.11000000    46.96000000
   O     88.80000000    36.79000000    45.92000000
   H     93.26000000    35.19000000    43.77000000
   H     91.01000000    34.07000000    42.18000000
   H     90.76000000    34.40000000    44.58000000
   H     89.57000000    35.21000000    43.52000000
   H     90.72000000    37.37000000    43.98000000
   H     91.88000000    36.50000000    44.93000000
   N     92.37000000    36.94000000    41.48000000
   C     92.57000000    37.80000000    40.33000000
   H     93.61100000    37.74500000    40.01300000
   H     91.92500000    37.47300000    39.51500000
   H     92.32600000    38.82800000    40.59800000
   H     92.94000000    37.06000000    42.30000000
  Ca     88.48000000    36.62000000    48.50000000
   O     89.44000000    34.70000000    50.00000000
   H     89.55000000    34.83000000    50.94000000
   H     89.99000000    33.94000000    49.79000000

Ca 1.70



